
OS:Version,
  {0af8d2e3-9faf-408c-b4b7-a3d0c3053283}, !- Handle
  2.8.0;                                  !- Version Identifier

OS:Facility,
  {b49efa42-429d-4207-bc67-8f17a960cf13}; !- Handle

OS:Site,
  {d3454ddd-0d04-4ac0-a972-37408c94ba0e}, !- Handle
  Buffalo Niagara Intl Ap_NY_USA,         !- Name
  42.8180322642434,                       !- Latitude {deg}
  -78.850630729414,                       !- Longitude {deg}
  -5,                                     !- Time Zone {hr}
  215,                                    !- Elevation {m}
  City;                                   !- Terrain

OS:SimulationControl,
  {925ba0be-e88f-482b-b89e-cb553f8a8234}, !- Handle
  ,                                       !- Do Zone Sizing Calculation
  ,                                       !- Do System Sizing Calculation
  ,                                       !- Do Plant Sizing Calculation
  Yes,                                    !- Run Simulation for Sizing Periods
  No;                                     !- Run Simulation for Weather File Run Periods

OS:Sizing:Parameters,
  {98c13d62-d138-44a5-b0cd-12462ef31fd9}, !- Handle
  1.25,                                   !- Heating Sizing Factor
  1.15;                                   !- Cooling Sizing Factor

OS:Timestep,
  {ae6c7993-7ae0-40f8-8cae-276360a32b2f}, !- Handle
  1;                                      !- Number of Timesteps per Hour

OS:ShadowCalculation,
  {66615018-93e5-41a0-85f6-15bc68f335ff}, !- Handle
  20,                                     !- Calculation Frequency
  15000;                                  !- Maximum Figures in Shadow Overlap Calculations

OS:HeatBalanceAlgorithm,
  {5f48f573-4f3c-4936-8dfd-7154e566b316}, !- Handle
  ConductionTransferFunction,             !- Algorithm
  200;                                    !- Surface Temperature Upper Limit {C}

OS:RunPeriod,
  {00ee5c08-6b94-4293-86f9-48e0dd207d94}, !- Handle
  Run Period 1,                           !- Name
  1,                                      !- Begin Month
  1,                                      !- Begin Day of Month
  12,                                     !- End Month
  31,                                     !- End Day of Month
  ,                                       !- Use Weather File Holidays and Special Days
  ,                                       !- Use Weather File Daylight Saving Period
  ,                                       !- Apply Weekend Holiday Rule
  ,                                       !- Use Weather File Rain Indicators
  ,                                       !- Use Weather File Snow Indicators
  ;                                       !- Number of Times Runperiod to be Repeated

OS:LifeCycleCost:Parameters,
  {b91ad713-43c2-4eac-a3cc-507319fcb126}, !- Handle
  ,                                       !- Analysis Type
  ,                                       !- Discounting Convention
  ,                                       !- Inflation Approach
  ,                                       !- Real Discount Rate
  ,                                       !- Nominal Discount Rate
  ,                                       !- Inflation
  ,                                       !- Base Date Month
  ,                                       !- Base Date Year
  ,                                       !- Service Date Month
  ,                                       !- Service Date Year
  ;                                       !- Length of Study Period in Years

OS:YearDescription,
  {94cde57d-1dc7-477b-be1f-5f096548f908}, !- Handle
  2018,                                   !- Calendar Year
  ,                                       !- Day of Week for Start Day
  ;                                       !- Is Leap Year

OS:WeatherFile,
  {65552f57-82f5-4fe5-96cb-e832bbd40589}, !- Handle
  Buffalo Niagara Intl Ap,                !- City
  NY,                                     !- State Province Region
  USA,                                    !- Country
  TMY3,                                   !- Data Source
  725280,                                 !- WMO Number
  42.93,                                  !- Latitude {deg}
  -78.73,                                 !- Longitude {deg}
  -5,                                     !- Time Zone {hr}
  215,                                    !- Elevation {m}
  file:////Users/tkwasnik/github/urbanopt-example-geojson-reopt-project/weather/USA_NY_Buffalo-Greater.Buffalo.Intl.AP.725280_TMY3.epw, !- Url
  ;                                       !- Checksum

OS:Site:WaterMainsTemperature,
  {d2b330ed-c7dd-4e9e-b4cb-b9770fbd977c}, !- Handle
  Correlation,                            !- Calculation Method
  ,                                       !- Temperature Schedule Name
  8.96666666666667,                       !- Annual Average Outdoor Air Temperature {C}
  26.2;                                   !- Maximum Difference In Monthly Average Outdoor Air Temperatures {deltaC}

OS:SizingPeriod:DesignDay,
  {263d43ff-d2aa-42a6-bd68-6751ba007c84}, !- Handle
  Buffalo Niagara Intl Ap Ann Clg .4% Condns WB=>MDB, !- Name
  27.8,                                   !- Maximum Dry-Bulb Temperature {C}
  9.3,                                    !- Daily Dry-Bulb Temperature Range {deltaC}
  23.8,                                   !- Humidity Indicating Conditions at Maximum Dry-Bulb
  98769,                                  !- Barometric Pressure {Pa}
  5.7,                                    !- Wind Speed {m/s}
  240,                                    !- Wind Direction {deg}
  0,                                      !- Sky Clearness
  0,                                      !- Rain Indicator
  0,                                      !- Snow Indicator
  21,                                     !- Day of Month
  7,                                      !- Month
  SummerDesignDay,                        !- Day Type
  0,                                      !- Daylight Saving Time Indicator
  Wetbulb,                                !- Humidity Indicating Type
  ,                                       !- Humidity Indicating Day Schedule Name
  DefaultMultipliers,                     !- Dry-Bulb Temperature Range Modifier Type
  ,                                       !- Dry-Bulb Temperature Range Modifier Schedule Name
  ASHRAETau,                              !- Solar Model Indicator
  ,                                       !- Beam Solar Day Schedule Name
  ,                                       !- Diffuse Solar Day Schedule Name
  0.462,                                  !- ASHRAE Taub {dimensionless}
  2.001;                                  !- ASHRAE Taud {dimensionless}

OS:SizingPeriod:DesignDay,
  {caeb6faa-9861-42dc-9501-f9fa071c8cf6}, !- Handle
  Buffalo Niagara Intl Ap Ann Clg .4% Condns DB=>MWB, !- Name
  30.3,                                   !- Maximum Dry-Bulb Temperature {C}
  9.3,                                    !- Daily Dry-Bulb Temperature Range {deltaC}
  21.8,                                   !- Humidity Indicating Conditions at Maximum Dry-Bulb
  98769,                                  !- Barometric Pressure {Pa}
  5.7,                                    !- Wind Speed {m/s}
  240,                                    !- Wind Direction {deg}
  0,                                      !- Sky Clearness
  0,                                      !- Rain Indicator
  0,                                      !- Snow Indicator
  21,                                     !- Day of Month
  7,                                      !- Month
  SummerDesignDay,                        !- Day Type
  0,                                      !- Daylight Saving Time Indicator
  Wetbulb,                                !- Humidity Indicating Type
  ,                                       !- Humidity Indicating Day Schedule Name
  DefaultMultipliers,                     !- Dry-Bulb Temperature Range Modifier Type
  ,                                       !- Dry-Bulb Temperature Range Modifier Schedule Name
  ASHRAETau,                              !- Solar Model Indicator
  ,                                       !- Beam Solar Day Schedule Name
  ,                                       !- Diffuse Solar Day Schedule Name
  0.462,                                  !- ASHRAE Taub {dimensionless}
  2.001;                                  !- ASHRAE Taud {dimensionless}

OS:SizingPeriod:DesignDay,
  {87b33879-e444-49e2-8eac-91a05ab089de}, !- Handle
  Buffalo Niagara Intl Ap Ann Htg 99.6% Condns DB, !- Name
  -16.3,                                  !- Maximum Dry-Bulb Temperature {C}
  0,                                      !- Daily Dry-Bulb Temperature Range {deltaC}
  -16.3,                                  !- Humidity Indicating Conditions at Maximum Dry-Bulb
  98769,                                  !- Barometric Pressure {Pa}
  5.1,                                    !- Wind Speed {m/s}
  270,                                    !- Wind Direction {deg}
  0,                                      !- Sky Clearness
  0,                                      !- Rain Indicator
  0,                                      !- Snow Indicator
  21,                                     !- Day of Month
  1,                                      !- Month
  WinterDesignDay,                        !- Day Type
  0,                                      !- Daylight Saving Time Indicator
  Wetbulb,                                !- Humidity Indicating Type
  ,                                       !- Humidity Indicating Day Schedule Name
  DefaultMultipliers,                     !- Dry-Bulb Temperature Range Modifier Type
  ,                                       !- Dry-Bulb Temperature Range Modifier Schedule Name
  ASHRAEClearSky;                         !- Solar Model Indicator

OS:ClimateZones,
  {ccad58c8-e248-4e8b-ba1c-d07f16502836}, !- Handle
  ,                                       !- Active Institution
  ,                                       !- Active Year
  ASHRAE,                                 !- Climate Zone Institution Name 1
  ANSI/ASHRAE Standard 169,               !- Climate Zone Document Name 1
  2006,                                   !- Climate Zone Document Year 1
  6A;                                     !- Climate Zone Value 1

OS:Node,
  {83f9f38b-86d8-42f2-85b3-a0b26102a582}, !- Handle
  Node 1,                                 !- Name
  {7dccab94-a233-4497-9eb4-1862ef706b2c}, !- Inlet Port
  ;                                       !- Outlet Port

OS:Connection,
  {7dccab94-a233-4497-9eb4-1862ef706b2c}, !- Handle
  {163d43b2-ca59-4ce4-bb03-a4451e7640e4}, !- Name
  ,                                       !- Source Object
  11,                                     !- Outlet Port
  {83f9f38b-86d8-42f2-85b3-a0b26102a582}, !- Target Object
  2;                                      !- Inlet Port

OS:PortList,
  {c352dd41-99a9-4d27-82e8-60f6e004e8d1}, !- Handle
  {4d282f7b-7382-492e-a0fd-9ede015a053f}, !- Name
  ;                                       !- HVAC Component

OS:PortList,
  {dcbc53b5-45ff-4002-95fd-72e28cdc4265}, !- Handle
  {09607c97-cbc2-49b9-af91-b33f4d000fef}, !- Name
  ;                                       !- HVAC Component

OS:PortList,
  {b5d751e9-f32a-48d3-93fb-409992a6e32f}, !- Handle
  {803d6749-80a3-434b-8193-1de62010748d}, !- Name
  ;                                       !- HVAC Component

OS:Node,
  {5f04ac89-3880-4702-b166-133d82763cf8}, !- Handle
  Node 2,                                 !- Name
  {dbfe0771-2744-44dc-9033-a730ad6496b8}, !- Inlet Port
  ;                                       !- Outlet Port

OS:Connection,
  {dbfe0771-2744-44dc-9033-a730ad6496b8}, !- Handle
  {7c799234-8f58-407a-b40e-99fdbbf2e3f5}, !- Name
  ,                                       !- Source Object
  11,                                     !- Outlet Port
  {5f04ac89-3880-4702-b166-133d82763cf8}, !- Target Object
  2;                                      !- Inlet Port

OS:PortList,
  {c013f291-17ba-49ae-97e0-a194db272010}, !- Handle
  {f062f15d-c74c-4785-a497-2e593a6efeed}, !- Name
  ;                                       !- HVAC Component

OS:PortList,
  {3771b577-142d-4cfe-ad16-8e8a2c647c13}, !- Handle
  {72e34fea-44fb-4ed3-b574-3b185a141f80}, !- Name
  ;                                       !- HVAC Component

OS:PortList,
  {ac4459c0-c61e-4da8-a583-db06b94f660e}, !- Handle
  {9c8c8b6e-9d39-4ab9-a3b3-d59228499570}, !- Name
  ;                                       !- HVAC Component

OS:Node,
  {0c005481-6d4d-42e6-aafd-65866d1874f1}, !- Handle
  Node 3,                                 !- Name
  {5fc2edb7-f2e0-42d0-9769-b9b242aaba5a}, !- Inlet Port
  ;                                       !- Outlet Port

OS:Connection,
  {5fc2edb7-f2e0-42d0-9769-b9b242aaba5a}, !- Handle
  {df49139f-c868-47ec-af1e-db2cc915ca39}, !- Name
  ,                                       !- Source Object
  11,                                     !- Outlet Port
  {0c005481-6d4d-42e6-aafd-65866d1874f1}, !- Target Object
  2;                                      !- Inlet Port

OS:PortList,
  {d427793e-262a-4eb7-9439-c5dc9fd65245}, !- Handle
  {a1846f96-7ade-412b-850a-38b653c83693}, !- Name
  ;                                       !- HVAC Component

OS:PortList,
  {24b33225-50cc-4c1f-ad74-15add3bfb657}, !- Handle
  {da484394-85a1-481e-a587-667166a4c01e}, !- Name
  ;                                       !- HVAC Component

OS:PortList,
  {4c724b17-5997-42e9-8955-41354bb3012e}, !- Handle
  {05a96ddc-5e10-42fe-83dd-7e91811dceee}, !- Name
  ;                                       !- HVAC Component

OS:Node,
  {b631a1eb-32df-4709-9997-316b36f72db0}, !- Handle
  Node 4,                                 !- Name
  {e5e6969b-ef29-4e3b-bb54-0bc76bb12e91}, !- Inlet Port
  ;                                       !- Outlet Port

OS:Connection,
  {e5e6969b-ef29-4e3b-bb54-0bc76bb12e91}, !- Handle
  {c5fbd622-1472-497e-8e50-0b5d485cd3d5}, !- Name
  ,                                       !- Source Object
  11,                                     !- Outlet Port
  {b631a1eb-32df-4709-9997-316b36f72db0}, !- Target Object
  2;                                      !- Inlet Port

OS:PortList,
  {e0cdcae9-9698-4d2d-b206-ff8c14b42cda}, !- Handle
  {516a1eb1-9680-43cd-a080-d32d574f0d12}, !- Name
  ;                                       !- HVAC Component

OS:PortList,
  {79823c22-0b31-44c8-9971-c8049b35f5ad}, !- Handle
  {ffe1439e-f150-4ca9-bcc8-b041748633e7}, !- Name
  ,                                       !- HVAC Component
  {459ae03a-e636-451c-a9d5-a0b4e90941f7}; !- Port 1

OS:PortList,
  {184bd717-d2bd-4726-a8fd-0f149582289c}, !- Handle
  {8ec8dfad-2d13-4860-b378-77bef2a91b16}, !- Name
  ;                                       !- HVAC Component

OS:Node,
  {68370471-8a3e-47fb-a883-705776ec4013}, !- Handle
  Node 5,                                 !- Name
  {5b547a5b-e05f-4bc9-9f0b-d5cde43767f3}, !- Inlet Port
  ;                                       !- Outlet Port

OS:Connection,
  {5b547a5b-e05f-4bc9-9f0b-d5cde43767f3}, !- Handle
  {e37e6bf3-93b0-4590-9567-01363580bf9f}, !- Name
  ,                                       !- Source Object
  11,                                     !- Outlet Port
  {68370471-8a3e-47fb-a883-705776ec4013}, !- Target Object
  2;                                      !- Inlet Port

OS:PortList,
  {79bf59bd-6f1a-4609-bffd-b81ab9c140ef}, !- Handle
  {4ecc5cc3-5b01-4c6e-a5a7-867879a6985b}, !- Name
  ;                                       !- HVAC Component

OS:PortList,
  {f2d2ed26-2b8a-49c0-a672-1f9526ae5422}, !- Handle
  {9d4b4fc2-398d-4419-a984-4b55ee1e6b28}, !- Name
  ,                                       !- HVAC Component
  {646831a0-1eb7-4a85-b083-cb9eab1fb978}; !- Port 1

OS:PortList,
  {01b147a7-622a-474f-b3f4-8fb8212116fc}, !- Handle
  {43ac86a9-941f-418d-acd7-ccf338a6bfa7}, !- Name
  ;                                       !- HVAC Component

OS:Node,
  {fa7eede4-135e-4c9b-85eb-025aa808fc66}, !- Handle
  Node 6,                                 !- Name
  {0990b6af-fb33-482b-90ae-6e481d2d5d03}, !- Inlet Port
  ;                                       !- Outlet Port

OS:Connection,
  {0990b6af-fb33-482b-90ae-6e481d2d5d03}, !- Handle
  {89dc3daa-d0b7-41e7-9f73-d08b4b19e86a}, !- Name
  ,                                       !- Source Object
  11,                                     !- Outlet Port
  {fa7eede4-135e-4c9b-85eb-025aa808fc66}, !- Target Object
  2;                                      !- Inlet Port

OS:PortList,
  {ca4ec4d2-f6fb-4477-a95a-8db0273b5e3e}, !- Handle
  {32e2dadc-6240-457d-b800-b581732e2da0}, !- Name
  ;                                       !- HVAC Component

OS:PortList,
  {a0762a77-2081-4024-9f5a-f4f7738bcfa0}, !- Handle
  {d2d543b2-4524-4da7-adbd-f32ee24b37cd}, !- Name
  ,                                       !- HVAC Component
  {ba166d05-cbe2-4f87-8817-1604e52f5a9e}; !- Port 1

OS:PortList,
  {1fdbe36c-6ad3-44fa-b7e3-5fe1891694f2}, !- Handle
  {d3d518d8-59a4-490d-8a77-f0849fe70996}, !- Name
  ;                                       !- HVAC Component

OS:Node,
  {80c738af-d309-4695-bf07-f35117c53fb5}, !- Handle
  Node 7,                                 !- Name
  {601abe13-f92f-4757-a66b-99e6260d6922}, !- Inlet Port
  ;                                       !- Outlet Port

OS:Connection,
  {601abe13-f92f-4757-a66b-99e6260d6922}, !- Handle
  {7e9c213e-3c2c-43a5-9c4a-fbbeb3b132ea}, !- Name
  ,                                       !- Source Object
  11,                                     !- Outlet Port
  {80c738af-d309-4695-bf07-f35117c53fb5}, !- Target Object
  2;                                      !- Inlet Port

OS:PortList,
  {8dd72c77-a3fb-4d95-80ae-285b09c82329}, !- Handle
  {26022641-5df2-4a11-8897-f8f1495f6eea}, !- Name
  ;                                       !- HVAC Component

OS:PortList,
  {fa14104f-8a25-4f39-a0bd-a27ea4393298}, !- Handle
  {7b1b15ba-7041-4377-b108-e245802e5341}, !- Name
  ,                                       !- HVAC Component
  {c327cc35-7ac9-4ed8-8778-1da204dee884}; !- Port 1

OS:PortList,
  {c9992ae0-d20f-4915-8b7d-4c58210fe78a}, !- Handle
  {b846d843-b550-4ccd-8b5c-7608d019c22c}, !- Name
  ;                                       !- HVAC Component

OS:Node,
  {9e836491-74c3-4013-8089-f81c6248ae2a}, !- Handle
  Node 8,                                 !- Name
  {c9b8d729-d80c-470b-9fa3-e4b176a1c0c0}, !- Inlet Port
  ;                                       !- Outlet Port

OS:Connection,
  {c9b8d729-d80c-470b-9fa3-e4b176a1c0c0}, !- Handle
  {aacdc329-649c-444f-a2e7-e9bc28faaefc}, !- Name
  ,                                       !- Source Object
  11,                                     !- Outlet Port
  {9e836491-74c3-4013-8089-f81c6248ae2a}, !- Target Object
  2;                                      !- Inlet Port

OS:PortList,
  {4e48216a-9b33-4ce3-95cf-ae06dca88ab3}, !- Handle
  {9a957231-4ac6-4e8b-9256-50f6f284d9e6}, !- Name
  ;                                       !- HVAC Component

OS:PortList,
  {ac6198e1-2e30-4cf1-aaac-b5ac6fa5ee33}, !- Handle
  {29080f3c-fce3-4707-96c7-a682dd298bc6}, !- Name
  ,                                       !- HVAC Component
  {a95076e0-7cb6-41a1-8fe7-05708d4ebb93}; !- Port 1

OS:PortList,
  {a4020411-2c37-454c-910a-94cfd95377ac}, !- Handle
  {78dfdbb5-5315-4828-84be-115b5a64ee95}, !- Name
  ;                                       !- HVAC Component

OS:Node,
  {a21fb462-b391-4a98-9098-025a431a3986}, !- Handle
  Node 9,                                 !- Name
  {b9e1a851-9e38-4078-b6fa-dcbec6fe4976}, !- Inlet Port
  ;                                       !- Outlet Port

OS:Connection,
  {b9e1a851-9e38-4078-b6fa-dcbec6fe4976}, !- Handle
  {a24512a6-51cd-4ffd-ba3f-f9b1815df964}, !- Name
  ,                                       !- Source Object
  11,                                     !- Outlet Port
  {a21fb462-b391-4a98-9098-025a431a3986}, !- Target Object
  2;                                      !- Inlet Port

OS:PortList,
  {55eb4b62-3abb-4118-adc8-80723dabba24}, !- Handle
  {01461eab-9244-4015-a7a3-7b4aa8b398f8}, !- Name
  ;                                       !- HVAC Component

OS:PortList,
  {5d50d97f-04bc-4cb2-95cf-145ad0371ef1}, !- Handle
  {6879fa80-c43b-4f3f-a139-5c3073ab1788}, !- Name
  ,                                       !- HVAC Component
  {a7da9cce-535f-4118-b19e-4a20be97bdf7}; !- Port 1

OS:PortList,
  {1ac86e59-f764-41d8-9342-46ad9e6d474e}, !- Handle
  {60e619be-827c-45ba-ba2a-aa12b4f72814}, !- Name
  ;                                       !- HVAC Component

OS:Node,
  {3be3616a-c12b-41ca-a00d-9d20163f40d4}, !- Handle
  Node 10,                                !- Name
  {bbc8f139-8bc7-4185-9dc0-6d622d0366dd}, !- Inlet Port
  ;                                       !- Outlet Port

OS:Connection,
  {bbc8f139-8bc7-4185-9dc0-6d622d0366dd}, !- Handle
  {e0e6b0fe-a71c-4da2-a411-1bc9f6c516d8}, !- Name
  ,                                       !- Source Object
  11,                                     !- Outlet Port
  {3be3616a-c12b-41ca-a00d-9d20163f40d4}, !- Target Object
  2;                                      !- Inlet Port

OS:PortList,
  {a642d5bb-908f-4238-a505-e5d11ec5e44a}, !- Handle
  {4e945124-729f-422e-b2d4-b92c8edf7059}, !- Name
  ;                                       !- HVAC Component

OS:PortList,
  {b404a79b-ccc2-431b-8924-7585cffddf7e}, !- Handle
  {0eba50f4-964a-4395-b2cf-61987ab1dfa7}, !- Name
  ,                                       !- HVAC Component
  {d8a31159-5d38-4334-9fe7-c5fd2236ec2f}; !- Port 1

OS:PortList,
  {2abe2d04-a519-4bae-91e0-91f266856c2b}, !- Handle
  {0e431931-2468-4b2a-af3c-33083087c557}, !- Name
  ;                                       !- HVAC Component

OS:Node,
  {d0ce0aa7-5ac5-4de6-93af-5917f160bfff}, !- Handle
  Node 11,                                !- Name
  {26a3d914-e155-417c-b852-9a5ea2aca8fb}, !- Inlet Port
  ;                                       !- Outlet Port

OS:Connection,
  {26a3d914-e155-417c-b852-9a5ea2aca8fb}, !- Handle
  {1856779d-2052-4f51-ac81-f3dfbed0e7a5}, !- Name
  ,                                       !- Source Object
  11,                                     !- Outlet Port
  {d0ce0aa7-5ac5-4de6-93af-5917f160bfff}, !- Target Object
  2;                                      !- Inlet Port

OS:PortList,
  {6f5d31a2-da7a-4b31-ba0b-1ea090bc56a3}, !- Handle
  {68111ab9-bfd0-4805-babc-1f791cdb6ce7}, !- Name
  ;                                       !- HVAC Component

OS:PortList,
  {3a0becd6-8e88-40ed-a731-ae11086dd0bb}, !- Handle
  {a8dc097d-7f62-4cdc-aea6-e1e64034f00e}, !- Name
  ,                                       !- HVAC Component
  {129c9fea-1f67-4891-9eec-40d79e085be8}; !- Port 1

OS:PortList,
  {e2150da4-f904-4033-8c41-8bc70ded640c}, !- Handle
  {f5e84579-dff9-4c9b-83ad-af129418cbd7}, !- Name
  ;                                       !- HVAC Component

OS:Node,
  {102b0042-543f-4c51-a0ac-a2ee9dc92335}, !- Handle
  Node 12,                                !- Name
  {a1e52bf3-e270-44ee-99f2-099884056acf}, !- Inlet Port
  ;                                       !- Outlet Port

OS:Connection,
  {a1e52bf3-e270-44ee-99f2-099884056acf}, !- Handle
  {19584885-e508-45da-b007-4cc0d66b248c}, !- Name
  ,                                       !- Source Object
  11,                                     !- Outlet Port
  {102b0042-543f-4c51-a0ac-a2ee9dc92335}, !- Target Object
  2;                                      !- Inlet Port

OS:PortList,
  {0f5c50a9-e118-43ee-869d-9e426d68e951}, !- Handle
  {4ed301e0-2929-4238-920e-ffcef892d421}, !- Name
  ;                                       !- HVAC Component

OS:PortList,
  {54cea699-0034-49d9-a4f7-1739aa4114ac}, !- Handle
  {0bb9ce0d-f540-4675-af5e-273ea4f5004a}, !- Name
  ,                                       !- HVAC Component
  {e98580b7-6ee0-49f6-a4b8-7e7f0476474f}; !- Port 1

OS:PortList,
  {1c20208a-0ba7-448e-ac4a-249ee4aa8e65}, !- Handle
  {e04c0d28-fcab-43b3-9396-1d3da664164f}, !- Name
  ;                                       !- HVAC Component

OS:RunPeriodControl:DaylightSavingTime,
  {5a7328dc-32d2-4921-8944-c96c278a7a9a}, !- Handle
  2nd Sunday in March,                    !- Start Date
  1st Sunday in November;                 !- End Date

OS:People:Definition,
  {57a8336a-dc92-47dc-8fcc-e3a4eb245ef0}, !- Handle
  FullServiceRestaurant Kitchen People Definition, !- Name
  People/Area,                            !- Number of People Calculation Method
  ,                                       !- Number of People {people}
  0.0538195520835486,                     !- People per Space Floor Area {person/m2}
  ,                                       !- Space Floor Area per Person {m2/person}
  0.3;                                    !- Fraction Radiant

OS:Schedule:Ruleset,
  {fec7fe5c-da4d-4c1c-98c2-397d1e76ca16}, !- Handle
  Clothing Schedule,                      !- Name
  {d9e77878-02d5-42c8-9490-d67b30a2fb58}, !- Schedule Type Limits Name
  {82230062-1338-4327-b5d5-245d9bc44b84}; !- Default Day Schedule Name

OS:Schedule:Day,
  {82230062-1338-4327-b5d5-245d9bc44b84}, !- Handle
  Clothing Schedule Default Winter Clothes, !- Name
  {d9e77878-02d5-42c8-9490-d67b30a2fb58}, !- Schedule Type Limits Name
  ,                                       !- Interpolate to Timestep
  24,                                     !- Hour 1
  0,                                      !- Minute 1
  1;                                      !- Value Until Time 1

OS:Schedule:Rule,
  {148c79a0-94d2-4379-b4df-5a2257ecd2fa}, !- Handle
  Schedule Rule 1,                        !- Name
  {fec7fe5c-da4d-4c1c-98c2-397d1e76ca16}, !- Schedule Ruleset Name
  0,                                      !- Rule Order
  {331cbb5c-866e-4edd-adf4-d6f7491ad13d}, !- Day Schedule Name
  ,                                       !- Apply Sunday
  ,                                       !- Apply Monday
  ,                                       !- Apply Tuesday
  ,                                       !- Apply Wednesday
  ,                                       !- Apply Thursday
  ,                                       !- Apply Friday
  ,                                       !- Apply Saturday
  ,                                       !- Apply Holiday
  DateRange,                              !- Date Specification Type
  5,                                      !- Start Month
  1,                                      !- Start Day
  9,                                      !- End Month
  30;                                     !- End Day

OS:Schedule:Day,
  {331cbb5c-866e-4edd-adf4-d6f7491ad13d}, !- Handle
  Clothing Schedule Summer Clothes,       !- Name
  {d9e77878-02d5-42c8-9490-d67b30a2fb58}, !- Schedule Type Limits Name
  ,                                       !- Interpolate to Timestep
  24,                                     !- Hour 1
  0,                                      !- Minute 1
  0.5;                                    !- Value Until Time 1

OS:ScheduleTypeLimits,
  {d9e77878-02d5-42c8-9490-d67b30a2fb58}, !- Handle
  ClothingInsulation,                     !- Name
  0,                                      !- Lower Limit Value
  ,                                       !- Upper Limit Value
  Continuous,                             !- Numeric Type
  ClothingInsulation;                     !- Unit Type

OS:Schedule:Ruleset,
  {ee2b8421-07ad-4297-90a2-e84562837b15}, !- Handle
  Air Velocity Schedule,                  !- Name
  {4b34e625-1b21-4fa0-978e-c00cf7a26054}, !- Schedule Type Limits Name
  {b99104e0-4382-40cd-bf3d-23f0d7737695}; !- Default Day Schedule Name

OS:Schedule:Day,
  {b99104e0-4382-40cd-bf3d-23f0d7737695}, !- Handle
  Air Velocity Schedule Default,          !- Name
  {4b34e625-1b21-4fa0-978e-c00cf7a26054}, !- Schedule Type Limits Name
  ,                                       !- Interpolate to Timestep
  24,                                     !- Hour 1
  0,                                      !- Minute 1
  0.2;                                    !- Value Until Time 1

OS:ScheduleTypeLimits,
  {4b34e625-1b21-4fa0-978e-c00cf7a26054}, !- Handle
  Velocity,                               !- Name
  0,                                      !- Lower Limit Value
  ,                                       !- Upper Limit Value
  Continuous,                             !- Numeric Type
  Velocity;                               !- Unit Type

OS:Schedule:Ruleset,
  {5462e281-495a-4a55-8be4-c41d895851e1}, !- Handle
  Work Efficiency Schedule,               !- Name
  {8b51b7a1-4933-42be-af4c-c59e5da07023}, !- Schedule Type Limits Name
  {b6f3d9ea-4594-4056-a721-1d070a407cb8}; !- Default Day Schedule Name

OS:Schedule:Day,
  {b6f3d9ea-4594-4056-a721-1d070a407cb8}, !- Handle
  Work Efficiency Schedule Default,       !- Name
  {8b51b7a1-4933-42be-af4c-c59e5da07023}, !- Schedule Type Limits Name
  ,                                       !- Interpolate to Timestep
  24,                                     !- Hour 1
  0,                                      !- Minute 1
  0;                                      !- Value Until Time 1

OS:ScheduleTypeLimits,
  {8b51b7a1-4933-42be-af4c-c59e5da07023}, !- Handle
  Fractional,                             !- Name
  0,                                      !- Lower Limit Value
  1,                                      !- Upper Limit Value
  Continuous;                             !- Numeric Type

OS:Lights:Definition,
  {cb7fcbcd-e570-4229-8dde-bc00a2917478}, !- Handle
  FullServiceRestaurant Kitchen Lights Definition, !- Name
  Watts/Area,                             !- Design Level Calculation Method
  ,                                       !- Lighting Level {W}
  12.9166925000517,                       !- Watts per Space Floor Area {W/m2}
  ,                                       !- Watts per Person {W/person}
  0.7,                                    !- Fraction Radiant
  0.2;                                    !- Fraction Visible

OS:AdditionalProperties,
  {3818a6e8-34bc-4295-bd1a-6de2e7f7e3d1}, !- Handle