
OS:Version,
  {4f3b2d18-282c-490b-ad2d-61177932748e}, !- Handle
  2.8.1;                                  !- Version Identifier

OS:Facility,
  {54bc8ee7-6d88-4715-a06e-c7ccaeabd2e3}; !- Handle

OS:Site,
  {ba1bf251-cfa0-4d78-8add-6de1e6678255}, !- Handle
  Denver Centennial  Golden   Nr_CO_USA,  !- Name
  39.74,                                  !- Latitude {deg}
  -105.18,                                !- Longitude {deg}
  -7,                                     !- Time Zone {hr}
  1829,                                   !- Elevation {m}
  City;                                   !- Terrain

OS:SimulationControl,
  {c84ead0b-fb32-4838-9055-84a1f621e803}, !- Handle
  ,                                       !- Do Zone Sizing Calculation
  ,                                       !- Do System Sizing Calculation
  ,                                       !- Do Plant Sizing Calculation
  Yes,                                    !- Run Simulation for Sizing Periods
  No;                                     !- Run Simulation for Weather File Run Periods

OS:Sizing:Parameters,
  {642ae923-5781-4f2e-82fd-adbede3f17c7}, !- Handle
  1.25,                                   !- Heating Sizing Factor
  1.15;                                   !- Cooling Sizing Factor

OS:Timestep,
  {b5eb8e09-776b-4487-892c-4101ae804164}, !- Handle
  1;                                      !- Number of Timesteps per Hour

OS:ShadowCalculation,
  {0b798e81-d482-44f4-af6d-63bed65ce18f}, !- Handle
  20,                                     !- Calculation Frequency
  15000;                                  !- Maximum Figures in Shadow Overlap Calculations

OS:HeatBalanceAlgorithm,
  {442c96b4-d71a-43f6-9474-d247365529ca}, !- Handle
  ConductionTransferFunction,             !- Algorithm
  200;                                    !- Surface Temperature Upper Limit {C}

OS:RunPeriod,
  {9e5169d1-83ca-4bb2-abe7-cb06df3bcf8f}, !- Handle
  Run Period 1,                           !- Name
  6,                                      !- Begin Month
  1,                                      !- Begin Day of Month
  6,                                      !- End Month
  1,                                      !- End Day of Month
  ,                                       !- Use Weather File Holidays and Special Days
  ,                                       !- Use Weather File Daylight Saving Period
  ,                                       !- Apply Weekend Holiday Rule
  ,                                       !- Use Weather File Rain Indicators
  ,                                       !- Use Weather File Snow Indicators
  ;                                       !- Number of Times Runperiod to be Repeated

OS:LifeCycleCost:Parameters,
  {5497bb8c-6eb8-428a-acb0-9a54621c3442}, !- Handle
  ,                                       !- Analysis Type
  ,                                       !- Discounting Convention
  ,                                       !- Inflation Approach
  ,                                       !- Real Discount Rate
  ,                                       !- Nominal Discount Rate
  ,                                       !- Inflation
  ,                                       !- Base Date Month
  ,                                       !- Base Date Year
  ,                                       !- Service Date Month
  ,                                       !- Service Date Year
  ;                                       !- Length of Study Period in Years

OS:WeatherFile,
  {41b9e3c8-a4eb-4d39-889b-4e692b70f900}, !- Handle
  Denver Centennial  Golden   Nr,         !- City
  CO,                                     !- State Province Region
  USA,                                    !- Country
  TMY3,                                   !- Data Source
  724666,                                 !- WMO Number
  39.74,                                  !- Latitude {deg}
  -105.18,                                !- Longitude {deg}
  -7,                                     !- Time Zone {hr}
  1829,                                   !- Elevation {m}
  file:///C:/gitrepos/urbanopt-scenario-gem/spec/files/weather/urbanopt_scenario_tests.epw, !- Url
  ;                                       !- Checksum

OS:Site:WaterMainsTemperature,
  {9c6ce1c4-b298-4fec-801e-6ff97028fcf3}, !- Handle
  Correlation,                            !- Calculation Method
  ,                                       !- Temperature Schedule Name
  9.7,                                    !- Annual Average Outdoor Air Temperature {C}
  22.8;                                   !- Maximum Difference In Monthly Average Outdoor Air Temperatures {deltaC}

OS:SizingPeriod:DesignDay,
  {4f6ed012-0e13-4217-8e6f-c89ddc3405d9}, !- Handle
  Denver Centennial  Golden   N Ann Clg .4% Condns DB=>MWB 1, !- Name
  33,                                     !- Maximum Dry-Bulb Temperature {C}
  15.2,                                   !- Daily Dry-Bulb Temperature Range {deltaC}
  15.7,                                   !- Humidity Indicating Conditions at Maximum Dry-Bulb
  81198,                                  !- Barometric Pressure {Pa}
  4.9,                                    !- Wind Speed {m/s}
  0,                                      !- Wind Direction {deg}
  0,                                      !- Sky Clearness
  0,                                      !- Rain Indicator
  0,                                      !- Snow Indicator
  21,                                     !- Day of Month
  7,                                      !- Month
  SummerDesignDay,                        !- Day Type
  0,                                      !- Daylight Saving Time Indicator
  Wetbulb,                                !- Humidity Indicating Type
  ,                                       !- Humidity Indicating Day Schedule Name
  DefaultMultipliers,                     !- Dry-Bulb Temperature Range Modifier Type
  ,                                       !- Dry-Bulb Temperature Range Modifier Schedule Name
  ASHRAETau,                              !- Solar Model Indicator
  ,                                       !- Beam Solar Day Schedule Name
  ,                                       !- Diffuse Solar Day Schedule Name
  0.424,                                  !- ASHRAE Taub {dimensionless}
  2.025;                                  !- ASHRAE Taud {dimensionless}

OS:SizingPeriod:DesignDay,
  {fe8d25d6-40e3-4726-8d30-c0370232ddc9}, !- Handle
  Denver Centennial  Golden   N Ann Clg .4% Condns WB=>MDB 1, !- Name
  27.3,                                   !- Maximum Dry-Bulb Temperature {C}
  15.2,                                   !- Daily Dry-Bulb Temperature Range {deltaC}
  18.4,                                   !- Humidity Indicating Conditions at Maximum Dry-Bulb
  81198,                                  !- Barometric Pressure {Pa}
  4.9,                                    !- Wind Speed {m/s}
  0,                                      !- Wind Direction {deg}
  0,                                      !- Sky Clearness
  0,                                      !- Rain Indicator
  0,                                      !- Snow Indicator
  21,                                     !- Day of Month
  7,                                      !- Month
  SummerDesignDay,                        !- Day Type
  0,                                      !- Daylight Saving Time Indicator
  Wetbulb,                                !- Humidity Indicating Type
  ,                                       !- Humidity Indicating Day Schedule Name
  DefaultMultipliers,                     !- Dry-Bulb Temperature Range Modifier Type
  ,                                       !- Dry-Bulb Temperature Range Modifier Schedule Name
  ASHRAETau,                              !- Solar Model Indicator
  ,                                       !- Beam Solar Day Schedule Name
  ,                                       !- Diffuse Solar Day Schedule Name
  0.424,                                  !- ASHRAE Taub {dimensionless}
  2.025;                                  !- ASHRAE Taud {dimensionless}

OS:SizingPeriod:DesignDay,
  {32cf5eee-3bae-4ac3-a44b-091d201ac722}, !- Handle
  Denver Centennial  Golden   N Ann Htg 99.6% Condns DB 1, !- Name
  -18.8,                                  !- Maximum Dry-Bulb Temperature {C}
  0,                                      !- Daily Dry-Bulb Temperature Range {deltaC}
  -18.8,                                  !- Humidity Indicating Conditions at Maximum Dry-Bulb
  81198,                                  !- Barometric Pressure {Pa}
  3,                                      !- Wind Speed {m/s}
  340,                                    !- Wind Direction {deg}
  0,                                      !- Sky Clearness
  0,                                      !- Rain Indicator
  0,                                      !- Snow Indicator
  21,                                     !- Day of Month
  12,                                     !- Month
  WinterDesignDay,                        !- Day Type
  0,                                      !- Daylight Saving Time Indicator
  Wetbulb,                                !- Humidity Indicating Type
  ,                                       !- Humidity Indicating Day Schedule Name
  DefaultMultipliers,                     !- Dry-Bulb Temperature Range Modifier Type
  ,                                       !- Dry-Bulb Temperature Range Modifier Schedule Name
  ASHRAEClearSky;                         !- Solar Model Indicator

OS:ClimateZones,
  {0b071c94-acbb-4575-a042-12861ade0a5f}, !- Handle
  ,                                       !- Active Institution
  ,                                       !- Active Year
  ASHRAE,                                 !- Climate Zone Institution Name 1
  ANSI/ASHRAE Standard 169,               !- Climate Zone Document Name 1
  2006,                                   !- Climate Zone Document Year 1
  5B;                                     !- Climate Zone Value 1

OS:YearDescription,
  {91b1c148-672a-4d25-89a6-212e42b75a8b}, !- Handle
  2012,                                   !- Calendar Year
  ,                                       !- Day of Week for Start Day
  ;                                       !- Is Leap Year

OS:Building,
  {46d5d144-b99e-4027-8e80-0a7b7bef8195}, !- Handle
  90.1-2004|SmallOffice,                  !- Name
  ,                                       !- Building Sector Type
  ,                                       !- North Axis {deg}
  ,                                       !- Nominal Floor to Floor Height {m}
  ,                                       !- Space Type Name
  {89f468bb-1a2e-4ed6-adda-2e469881b066}, !- Default Construction Set Name
  ,                                       !- Default Schedule Set Name
  ,                                       !- Standards Number of Stories
  ,                                       !- Standards Number of Above Ground Stories
  ,                                       !- Standards Template
  Office;                                 !- Standards Building Type

OS:SpaceType,
  {2c432355-61e4-4bf8-bac4-4e20c68a2458}, !- Handle
  Office WholeBuilding - Sm Office - 90.1-2004, !- Name
  ,                                       !- Default Construction Set Name
  {ea112513-cdb3-4ce0-9145-53d4e1db2953}, !- Default Schedule Set Name
  ,                                       !- Group Rendering Name
  {03545f5e-b931-42d8-9c4b-70cdfb5f872f}, !- Design Specification Outdoor Air Object Name
  ,                                       !- Standards Template
  Office,                                 !- Standards Building Type
  WholeBuilding - Sm Office;              !- Standards Space Type

OS:BuildingStory,
  {8f25eb0e-abd2-4767-83c6-304d0645214b}, !- Handle
  Story Ground,                           !- Name
  0,                                      !- Nominal Z Coordinate {m}
  3.048,                                  !- Nominal Floor to Floor Height {m}
  ,                                       !- Default Construction Set Name
  ,                                       !- Default Schedule Set Name
  ;                                       !- Group Rendering Name

OS:Space,
  {263942fa-adde-43c1-b000-3fd0f08982de}, !- Handle
  Office WholeBuilding - Sm Office A end_a - Story Ground, !- Name
  {2c432355-61e4-4bf8-bac4-4e20c68a2458}, !- Space Type Name
  ,                                       !- Default Construction Set Name
  ,                                       !- Default Schedule Set Name
  -0,                                     !- Direction of Relative North {deg}
  -10.223302793129,                       !- X Origin {m}
  -6.81553519541936,                      !- Y Origin {m}
  0,                                      !- Z Origin {m}
  {8f25eb0e-abd2-4767-83c6-304d0645214b}, !- Building Story Name
  {7ffbff77-cee6-4a59-a6d6-3f6ec468564b}; !- Thermal Zone Name

OS:Surface,
  {f6ead632-31f0-451d-bf92-57f9c3a53719}, !- Handle
  Surface 1,                              !- Name
  Floor,                                  !- Surface Type
  ,                                       !- Construction Name
  {263942fa-adde-43c1-b000-3fd0f08982de}, !- Space Name
  Ground,                                 !- Outside Boundary Condition
  ,                                       !- Outside Boundary Condition Object
  NoSun,                                  !- Sun Exposure
  NoWind,                                 !- Wind Exposure
  ,                                       !- View Factor to Ground
  ,                                       !- Number of Vertices
  4.08562073062058e-014, -8.88178419700125e-016, 0, !- X,Y,Z Vertex 1 {m}
  4.08562073062058e-014, 4.572, 0,        !- X,Y,Z Vertex 2 {m}
  4.572, 4.572, 0,                        !- X,Y,Z Vertex 3 {m}
  4.572, -8.88178419700125e-016, 0;       !- X,Y,Z Vertex 4 {m}

OS:Surface,
  {513fb081-23f5-4b4e-aa74-7fe4d1eac987}, !- Handle
  Surface 2,                              !- Name
  Wall,                                   !- Surface Type
  ,                                       !- Construction Name
  {263942fa-adde-43c1-b000-3fd0f08982de}, !- Space Name
  Outdoors,                               !- Outside Boundary Condition
  ,                                       !- Outside Boundary Condition Object
  SunExposed,                             !- Sun Exposure
  WindExposed,                            !- Wind Exposure
  ,                                       !- View Factor to Ground
  ,                                       !- Number of Vertices
  4.08562073062058e-014, 4.572, 3.048,    !- X,Y,Z Vertex 1 {m}
  4.08562073062058e-014, 4.572, 0,        !- X,Y,Z Vertex 2 {m}
  4.08562073062058e-014, -8.88178419700125e-016, 0, !- X,Y,Z Vertex 3 {m}
  4.08562073062058e-014, -8.88178419700125e-016, 3.048; !- X,Y,Z Vertex 4 {m}

OS:Surface,
  {37560761-3f48-4489-ba16-987ef3d37f5b}, !- Handle
  Surface 3,                              !- Name
  Wall,                                   !- Surface Type
  ,                                       !- Construction Name
  {263942fa-adde-43c1-b000-3fd0f08982de}, !- Space Name
  Surface,                                !- Outside Boundary Condition
  {486998b7-3507-4ec0-b67f-bb01360992c5}, !- Outside Boundary Condition Object
  NoSun,                                  !- Sun Exposure
  NoWind,                                 !- Wind Exposure
  ,                                       !- View Factor to Ground
  ,                                       !- Number of Vertices
  4.572, 4.572, 3.048,                    !- X,Y,Z Vertex 1 {m}
  4.572, 4.572, 0,                        !- X,Y,Z Vertex 2 {m}
  4.08562073062058e-014, 4.572, 0,        !- X,Y,Z Vertex 3 {m}
  4.08562073062058e-014, 4.572, 3.048;    !- X,Y,Z Vertex 4 {m}

OS:Surface,
  {6b103684-bd8f-4b0e-87b2-0776df06f229}, !- Handle
  Surface 4,                              !- Name
  Wall,                                   !- Surface Type
  ,                                       !- Construction Name
  {263942fa-adde-43c1-b000-3fd0f08982de}, !- Space Name
  Surface,                                !- Outside Boundary Condition
  {073b754f-994e-44fc-af0d-abc9d0740f72}, !- Outside Boundary Condition Object
  NoSun,                                  !- Sun Exposure
  NoWind,                                 !- Wind Exposure
  ,                                       !- View Factor to Ground
  ,                                       !- Number of Vertices
  4.572, -8.88178419700125e-016, 3.048,   !- X,Y,Z Vertex 1 {m}
  4.572, -8.88178419700125e-016, 0,       !- X,Y,Z Vertex 2 {m}
  4.572, 4.572, 0,                        !- X,Y,Z Vertex 3 {m}
  4.572, 4.572, 3.048;                    !- X,Y,Z Vertex 4 {m}

OS:Surface,
  {924e7625-d872-49a3-b9ae-19eb8ac1e71a}, !- Handle
  Surface 5,                              !- Name
  Wall,                                   !- Surface Type
  ,                                       !- Construction Name
  {263942fa-adde-43c1-b000-3fd0f08982de}, !- Space Name
  Outdoors,                               !- Outside Boundary Condition
  ,                                       !- Outside Boundary Condition Object
  SunExposed,                             !- Sun Exposure
  WindExposed,                            !- Wind Exposure
  ,                                       !- View Factor to Ground
  ,                                       !- Number of Vertices
  4.08562073062058e-014, -8.88178419700125e-016, 3.048, !- X,Y,Z Vertex 1 {m}
  4.08562073062058e-014, -8.88178419700125e-016, 0, !- X,Y,Z Vertex 2 {m}
  4.572, -8.88178419700125e-016, 0,       !- X,Y,Z Vertex 3 {m}
  4.572, -8.88178419700125e-016, 3.048;   !- X,Y,Z Vertex 4 {m}

OS:Surface,
  {168b23ae-a96b-43d3-a670-05a0ae72b0dc}, !- Handle
  Surface 6,                              !- Name
  RoofCeiling,                            !- Surface Type
  ,                                       !- Construction Name
  {263942fa-adde-43c1-b000-3fd0f08982de}, !- Space Name
  Outdoors,                               !- Outside Boundary Condition
  ,                                       !- Outside Boundary Condition Object
  SunExposed,                             !- Sun Exposure
  WindExposed,                            !- Wind Exposure
  ,                                       !- View Factor to Ground
  ,                                       !- Number of Vertices
  4.572, -8.88178419700125e-016, 3.048,   !- X,Y,Z Vertex 1 {m}
  4.572, 4.572, 3.048,                    !- X,Y,Z Vertex 2 {m}
  4.08562073062058e-014, 4.572, 3.048,    !- X,Y,Z Vertex 3 {m}
  4.08562073062058e-014, -8.88178419700125e-016, 3.048; !- X,Y,Z Vertex 4 {m}

OS:ThermalZone,
  {7ffbff77-cee6-4a59-a6d6-3f6ec468564b}, !- Handle
  Zone Office WholeBuilding - Sm Office A end_a - Story Ground, !- Name
  1,                                      !- Multiplier
  ,                                       !- Ceiling Height {m}
  ,                                       !- Volume {m3}
  ,                                       !- Floor Area {m2}
  ,                                       !- Zone Inside Convection Algorithm
  ,                                       !- Zone Outside Convection Algorithm
  ,                                       !- Zone Conditioning Equipment List Name
  {999bc5d1-6cec-43e9-8807-b55e587546c8}, !- Zone Air Inlet Port List
  {cf1674c9-be2d-4595-a22c-bfd3fe8f5af6}, !- Zone Air Exhaust Port List
  {b0f18525-5b2c-4ba5-bb52-ee3ecfeccae0}, !- Zone Air Node Name
  {6a5634b6-7813-4751-bdca-8ecb0539b3c8}, !- Zone Return Air Port List
  ,                                       !- Primary Daylighting Control Name
  ,                                       !- Fraction of Zone Controlled by Primary Daylighting Control
  ,                                       !- Secondary Daylighting Control Name
  ,                                       !- Fraction of Zone Controlled by Secondary Daylighting Control
  ,                                       !- Illuminance Map Name
  ,                                       !- Group Rendering Name
  {20f0b1b3-c6f8-47cb-b8aa-88ece19c73b4}, !- Thermostat Name
  No;                                     !- Use Ideal Air Loads

OS:Node,
  {dbdfc417-4ae6-4210-a438-520049881a5d}, !- Handle
  Zone Office WholeBuilding - Sm Office A end_a - Story Ground Zone Air Node, !- Name
  {b0f18525-5b2c-4ba5-bb52-ee3ecfeccae0}, !- Inlet Port
  ;                                       !- Outlet Port

OS:Connection,
  {b0f18525-5b2c-4ba5-bb52-ee3ecfeccae0}, !- Handle
  {9dd7a888-557c-40e0-95b9-12e2b60b241a}, !- Name
  {7ffbff77-cee6-4a59-a6d6-3f6ec468564b}, !- Source Object
  11,                                     !- Outlet Port
  {dbdfc417-4ae6-4210-a438-520049881a5d}, !- Target Object
  2;                                      !- Inlet Port

OS:PortList,
  {999bc5d1-6cec-43e9-8807-b55e587546c8}, !- Handle
  {abb8ec7e-b2d2-4661-a2b2-4196a14de2b2}, !- Name
  {7ffbff77-cee6-4a59-a6d6-3f6ec468564b}, !- HVAC Component
  {af355444-7266-46c1-9787-6f4cb9a61145}; !- Port 1

OS:PortList,
  {cf1674c9-be2d-4595-a22c-bfd3fe8f5af6}, !- Handle
  {500a528a-587c-46a7-81f3-78fb6aca77a0}, !- Name
  {7ffbff77-cee6-4a59-a6d6-3f6ec468564b}; !- HVAC Component

OS:PortList,
  {6a5634b6-7813-4751-bdca-8ecb0539b3c8}, !- Handle
  {fe59dab1-5c3b-4706-8d5f-b787b988fcf0}, !- Name
  {7ffbff77-cee6-4a59-a6d6-3f6ec468564b}, !- HVAC Component
  {f6902f13-565f-451c-a7cd-4475c4abaf11}; !- Port 1

OS:Sizing:Zone,
  {c27a38aa-9147-416f-a55f-dcd46991dfea}, !- Handle
  {7ffbff77-cee6-4a59-a6d6-3f6ec468564b}, !- Zone or ZoneList Name
  SupplyAirTemperature,                   !- Zone Cooling Design Supply Air Temperature Input Method
  12.7777777777778,                       !- Zone Cooling Design Supply Air Temperature {C}
  11.11,                                  !- Zone Cooling Design Supply Air Temperature Difference {deltaC}
  SupplyAirTemperature,                   !- Zone Heating Design Supply Air Temperature Input Method
  50.0000000000001,                       !- Zone Heating Design Supply Air Temperature {C}
  11.11,                                  !- Zone Heating Design Supply Air Temperature Difference {deltaC}
  0.0085,                                 !- Zone Cooling Design Supply Air Humidity Ratio {kg-H2O/kg-air}
  0.008,                                  !- Zone Heating Design Supply Air Humidity Ratio {kg-H2O/kg-air}
  ,                                       !- Zone Heating Sizing Factor
  ,                                       !- Zone Cooling Sizing Factor
  DesignDay,                              !- Cooling Design Air Flow Method
  ,                                       !- Cooling Design Air Flow Rate {m3/s}
  ,                                       !- Cooling Minimum Air Flow per Zone Floor Area {m3/s-m2}
  ,                                       !- Cooling Minimum Air Flow {m3/s}
  ,                                       !- Cooling Minimum Air Flow Fraction
  DesignDay,                              !- Heating Design Air Flow Method
  ,                                       !- Heating Design Air Flow Rate {m3/s}
  ,                                       !- Heating Maximum Air Flow per Zone Floor Area {m3/s-m2}
  ,                                       !- Heating Maximum Air Flow {m3/s}
  ,                                       !- Heating Maximum Air Flow Fraction
  ,                                       !- Design Zone Air Distribution Effectiveness in Cooling Mode
  ,                                       !- Design Zone Air Distribution Effectiveness in Heating Mode
  No,                                     !- Account for Dedicated Outdoor Air System
  NeutralSupplyAir,                       !- Dedicated Outdoor Air System Control Strategy
  autosize,                               !- Dedicated Outdoor Air Low Setpoint Temperature for Design {C}
  autosize;                               !- Dedicated Outdoor Air High Setpoint Temperature for Design {C}

OS:ZoneHVAC:EquipmentList,
  {f223ed87-6fe7-44b8-a722-e5e9e2efbe42}, !- Handle
  Zone Office WholeBuilding - Sm Office A end_a - Story Ground Zone HVAC Equipment List, !- Name
  {7ffbff77-cee6-4a59-a6d6-3f6ec468564b}, !- Thermal Zone
  ,                                       !- Load Distribution Scheme
  {647f5133-32d9-4f41-b7c1-02d9424524f8}, !- Zone Equipment 1
  1,                                      !- Zone Equipment Cooling Sequence 1
  1,                                      !- Zone Equipment Heating or No-Load Sequence 1
  ,                                       !- Zone Equipment Sequential Cooling Fraction 1
  ;                                       !- Zone Equipment Sequential Heating Fraction 1

OS:Space,
  {6809b0cf-c186-4d67-b1e1-b562300505d4}, !- Handle
  Office WholeBuilding - Sm Office B end_a - Story Ground, !- Name
  {2c432355-61e4-4bf8-bac4-4e20c68a2458}, !- Space Type Name
  ,                                       !- Default Construction Set Name
  ,                                       !- Default Schedule Set Name
  -0,                                     !- Direction of Relative North {deg}
  -10.223302793129,                       !- X Origin {m}
  -2.24353519541936,                      !- Y Origin {m}
  0,                                      !- Z Origin {m}
  {8f25eb0e-abd2-4767-83c6-304d0645214b}, !- Building Story Name
  {ab09702d-eec3-4c7f-ac68-214b41246a9a}; !- Thermal Zone Name

OS:Surface,
  {62e17783-3887-45da-a6cb-0f8dd02baeff}, !- Handle
  Surface 7,                              !- Name
  Floor,                                  !- Surface Type
  ,                                       !- Construction Name
  {6809b0cf-c186-4d67-b1e1-b562300505d4}, !- Space Name
  Ground,                                 !- Outside Boundary Condition
  ,                                       !- Outside Boundary Condition Object
  NoSun,                                  !- Sun Exposure
  NoWind,                                 !- Wind Exposure
  ,                                       !- View Factor to Ground
  ,                                       !- Number of Vertices
  4.08562073062058e-014, -4.44089209850063e-016, 0, !- X,Y,Z Vertex 1 {m}
  4.08562073062058e-014, 4.48707039083872, 0, !- X,Y,Z Vertex 2 {m}
  4.572, 4.48707039083872, 0,             !- X,Y,Z Vertex 3 {m}
  4.572, -4.44089209850063e-016, 0;       !- X,Y,Z Vertex 4 {m}

OS:Surface,
  {73eff28e-9711-4741-836b-9da01dc75e4b}, !- Handle
  Surface 8,                              !- Name
  Wall,                                   !- Surface Type
  ,                                       !- Construction Name
  {6809b0cf-c186-4d67-b1e1-b562300505d4}, !- Space Name
  Outdoors,                               !- Outside Boundary Condition
  ,                                       !- Outside Boundary Condition Object
  SunExposed,                             !- Sun Exposure
  WindExposed,                            !- Wind Exposure
  ,                                       !- View Factor to Ground
  ,                                       !- Number of Vertices
  4.08562073062058e-014, 4.48707039083872, 3.048, !- X,Y,Z Vertex 1 {m}
  4.08562073062058e-014, 4.48707039083872, 0, !- X,Y,Z Vertex 2 {m}
  4.08562073062058e-014, -4.44089209850063e-016, 0, !- X,Y,Z Vertex 3 {m}
  4.08562073062058e-014, -4.44089209850063e-016, 3.048; !- X,Y,Z Vertex 4 {m}

OS:Surface,
  {f7898570-10c0-4a7a-a29f-dacf8e63c179}, !- Handle
  Surface 9,                              !- Name
  Wall,                                   !- Surface Type
  ,                                       !- Construction Name
  {6809b0cf-c186-4d67-b1e1-b562300505d4}, !- Space Name
  Surface,                                !- Outside Boundary Condition
  {011fe6a1-e295-4138-ad2f-34e23ed41fd2}, !- Outside Boundary Condition Object
  NoSun,                                  !- Sun Exposure
  NoWind,                                 !- Wind Exposure
  ,                                       !- View Factor to Ground
  ,                                       !- Number of Vertices
  4.572, 4.48707039083872, 3.048,         !- X,Y,Z Vertex 1 {m}
  4.572, 4.48707039083872, 0,             !- X,Y,Z Vertex 2 {m}
  4.08562073062058e-014, 4.48707039083872, 0, !- X,Y,Z Vertex 3 {m}
  4.08562073062058e-014, 4.48707039083872, 3.048; !- X,Y,Z Vertex 4 {m}

OS:Surface,
  {01db0272-9e74-4e33-8115-e9cff4f7bf05}, !- Handle
  Surface 10,                             !- Name
  Wall,                                   !- Surface Type
  ,                                       !- Construction Name
  {6809b0cf-c186-4d67-b1e1-b562300505d4}, !- Space Name
  Surface,                                !- Outside Boundary Condition
  {3282e700-44f0-40c4-833a-271c488afad9}, !- Outside Boundary Condition Object
  NoSun,                                  !- Sun Exposure
  NoWind,                                 !- Wind Exposure
  ,                                       !- View Factor to Ground
  ,                                       !- Number of Vertices
  4.572, -4.44089209850063e-016, 3.048,   !- X,Y,Z Vertex 1 {m}
  4.572, -4.44089209850063e-016, 0,       !- X,Y,Z Vertex 2 {m}
  4.572, 4.48707039083872, 0,             !- X,Y,Z Vertex 3 {m}
  4.572, 4.48707039083872, 3.048;         !- X,Y,Z Vertex 4 {m}

OS:Surface,
  {486998b7-3507-4ec0-b67f-bb01360992c5}, !- Handle
  Surface 11,                             !- Name
  Wall,                                   !- Surface Type
  ,                                       !- Construction Name