
OS:Version,
  {4b9c352e-15ba-4143-bbf0-35d939ba7c47}, !- Handle
  2.8.0;                                  !- Version Identifier

OS:Facility,
  {d50fc437-c22d-4151-ab7a-7d45e8addfc9}; !- Handle

OS:Site,
  {20e470f5-4934-44c5-9a83-812c4c601ab8}, !- Handle
  Buffalo Niagara Intl Ap_NY_USA,         !- Name
  42.813153418927,                        !- Latitude {deg}
  -78.8478679776468,                      !- Longitude {deg}
  -5,                                     !- Time Zone {hr}
  215,                                    !- Elevation {m}
  City;                                   !- Terrain

OS:SimulationControl,
  {0963c772-bb7f-4300-a8fc-77ad70bd2f3e}, !- Handle
  ,                                       !- Do Zone Sizing Calculation
  ,                                       !- Do System Sizing Calculation
  ,                                       !- Do Plant Sizing Calculation
  No,                                     !- Run Simulation for Sizing Periods
  Yes;                                    !- Run Simulation for Weather File Run Periods

OS:Sizing:Parameters,
  {bf8019b9-c997-4a9f-b055-4e7dbe65a376}, !- Handle
  1.25,                                   !- Heating Sizing Factor
  1.15;                                   !- Cooling Sizing Factor

OS:Timestep,
  {e3125710-60ad-48a5-8f6f-e45ee7aebf4c}, !- Handle
  1;                                      !- Number of Timesteps per Hour

OS:ShadowCalculation,
  {522fe4c4-086b-4624-8834-c5208eb93bbd}, !- Handle
  20,                                     !- Calculation Frequency
  15000;                                  !- Maximum Figures in Shadow Overlap Calculations

OS:HeatBalanceAlgorithm,
  {7fbc5d63-40ee-4998-b0fb-f4bef74dc1ec}, !- Handle
  ConductionTransferFunction,             !- Algorithm
  200;                                    !- Surface Temperature Upper Limit {C}

OS:RunPeriod,
  {059ea0b3-1aff-428d-b421-fd6eb439259d}, !- Handle
  Run Period 1,                           !- Name
  1,                                      !- Begin Month
  1,                                      !- Begin Day of Month
  12,                                     !- End Month
  31,                                     !- End Day of Month
  ,                                       !- Use Weather File Holidays and Special Days
  ,                                       !- Use Weather File Daylight Saving Period
  ,                                       !- Apply Weekend Holiday Rule
  ,                                       !- Use Weather File Rain Indicators
  ,                                       !- Use Weather File Snow Indicators
  ;                                       !- Number of Times Runperiod to be Repeated

OS:LifeCycleCost:Parameters,
  {0a15a743-4032-4495-906b-e23e9fc7047f}, !- Handle
  ,                                       !- Analysis Type
  ,                                       !- Discounting Convention
  ,                                       !- Inflation Approach
  ,                                       !- Real Discount Rate
  ,                                       !- Nominal Discount Rate
  ,                                       !- Inflation
  ,                                       !- Base Date Month
  ,                                       !- Base Date Year
  ,                                       !- Service Date Month
  ,                                       !- Service Date Year
  ;                                       !- Length of Study Period in Years

OS:YearDescription,
  {bda6058c-105e-469d-8226-bf281befac6b}, !- Handle
  2018,                                   !- Calendar Year
  ,                                       !- Day of Week for Start Day
  ;                                       !- Is Leap Year

OS:WeatherFile,
  {a44e0616-fc5d-4ab3-ba94-5f703dcc8363}, !- Handle
  Buffalo Niagara Intl Ap,                !- City
  NY,                                     !- State Province Region
  USA,                                    !- Country
  TMY3,                                   !- Data Source
  725280,                                 !- WMO Number
  42.93,                                  !- Latitude {deg}
  -78.73,                                 !- Longitude {deg}
  -5,                                     !- Time Zone {hr}
  215,                                    !- Elevation {m}
  file:////Users/tkwasnik/github/urbanopt-example-geojson-reopt-project/weather/USA_NY_Buffalo-Greater.Buffalo.Intl.AP.725280_TMY3.epw, !- Url
  ;                                       !- Checksum

OS:Site:WaterMainsTemperature,
  {120df0cf-e6cf-4fa0-b47a-adae84299cb6}, !- Handle
  Correlation,                            !- Calculation Method
  ,                                       !- Temperature Schedule Name
  8.96666666666667,                       !- Annual Average Outdoor Air Temperature {C}
  26.2;                                   !- Maximum Difference In Monthly Average Outdoor Air Temperatures {deltaC}

OS:SizingPeriod:DesignDay,
  {843358e3-45d7-4552-9066-899984fc978b}, !- Handle
  Buffalo Niagara Intl Ap Ann Clg .4% Condns WB=>MDB, !- Name
  27.8,                                   !- Maximum Dry-Bulb Temperature {C}
  9.3,                                    !- Daily Dry-Bulb Temperature Range {deltaC}
  23.8,                                   !- Humidity Indicating Conditions at Maximum Dry-Bulb
  98769,                                  !- Barometric Pressure {Pa}
  5.7,                                    !- Wind Speed {m/s}
  240,                                    !- Wind Direction {deg}
  0,                                      !- Sky Clearness
  0,                                      !- Rain Indicator
  0,                                      !- Snow Indicator
  21,                                     !- Day of Month
  7,                                      !- Month
  SummerDesignDay,                        !- Day Type
  0,                                      !- Daylight Saving Time Indicator
  Wetbulb,                                !- Humidity Indicating Type
  ,                                       !- Humidity Indicating Day Schedule Name
  DefaultMultipliers,                     !- Dry-Bulb Temperature Range Modifier Type
  ,                                       !- Dry-Bulb Temperature Range Modifier Schedule Name
  ASHRAETau,                              !- Solar Model Indicator
  ,                                       !- Beam Solar Day Schedule Name
  ,                                       !- Diffuse Solar Day Schedule Name
  0.462,                                  !- ASHRAE Taub {dimensionless}
  2.001;                                  !- ASHRAE Taud {dimensionless}

OS:SizingPeriod:DesignDay,
  {94caddff-6e31-41a2-939b-b67b6dbd0252}, !- Handle
  Buffalo Niagara Intl Ap Ann Clg .4% Condns DB=>MWB, !- Name
  30.3,                                   !- Maximum Dry-Bulb Temperature {C}
  9.3,                                    !- Daily Dry-Bulb Temperature Range {deltaC}
  21.8,                                   !- Humidity Indicating Conditions at Maximum Dry-Bulb
  98769,                                  !- Barometric Pressure {Pa}
  5.7,                                    !- Wind Speed {m/s}
  240,                                    !- Wind Direction {deg}
  0,                                      !- Sky Clearness
  0,                                      !- Rain Indicator
  0,                                      !- Snow Indicator
  21,                                     !- Day of Month
  7,                                      !- Month
  SummerDesignDay,                        !- Day Type
  0,                                      !- Daylight Saving Time Indicator
  Wetbulb,                                !- Humidity Indicating Type
  ,                                       !- Humidity Indicating Day Schedule Name
  DefaultMultipliers,                     !- Dry-Bulb Temperature Range Modifier Type
  ,                                       !- Dry-Bulb Temperature Range Modifier Schedule Name
  ASHRAETau,                              !- Solar Model Indicator
  ,                                       !- Beam Solar Day Schedule Name
  ,                                       !- Diffuse Solar Day Schedule Name
  0.462,                                  !- ASHRAE Taub {dimensionless}
  2.001;                                  !- ASHRAE Taud {dimensionless}

OS:SizingPeriod:DesignDay,
  {2c6d01d7-c6c2-4b2e-a2f3-3f9d3f95d5c1}, !- Handle
  Buffalo Niagara Intl Ap Ann Htg 99.6% Condns DB, !- Name
  -16.3,                                  !- Maximum Dry-Bulb Temperature {C}
  0,                                      !- Daily Dry-Bulb Temperature Range {deltaC}
  -16.3,                                  !- Humidity Indicating Conditions at Maximum Dry-Bulb
  98769,                                  !- Barometric Pressure {Pa}
  5.1,                                    !- Wind Speed {m/s}
  270,                                    !- Wind Direction {deg}
  0,                                      !- Sky Clearness
  0,                                      !- Rain Indicator
  0,                                      !- Snow Indicator
  21,                                     !- Day of Month
  1,                                      !- Month
  WinterDesignDay,                        !- Day Type
  0,                                      !- Daylight Saving Time Indicator
  Wetbulb,                                !- Humidity Indicating Type
  ,                                       !- Humidity Indicating Day Schedule Name
  DefaultMultipliers,                     !- Dry-Bulb Temperature Range Modifier Type
  ,                                       !- Dry-Bulb Temperature Range Modifier Schedule Name
  ASHRAEClearSky;                         !- Solar Model Indicator

OS:ClimateZones,
  {25330ca3-4b71-46ba-8fe0-805a1af66571}, !- Handle
  ,                                       !- Active Institution
  ,                                       !- Active Year
  ASHRAE,                                 !- Climate Zone Institution Name 1
  ANSI/ASHRAE Standard 169,               !- Climate Zone Document Name 1
  2006,                                   !- Climate Zone Document Year 1
  6A;                                     !- Climate Zone Value 1

OS:Node,
  {c2a1ab72-54e9-4a90-bb23-4aae507a64aa}, !- Handle
  Node 1,                                 !- Name
  {5156715f-93f3-4818-8570-ce9ef78cd134}, !- Inlet Port
  ;                                       !- Outlet Port

OS:Connection,
  {5156715f-93f3-4818-8570-ce9ef78cd134}, !- Handle
  {469db1da-3140-45ad-a793-492031f261cd}, !- Name
  ,                                       !- Source Object
  11,                                     !- Outlet Port
  {c2a1ab72-54e9-4a90-bb23-4aae507a64aa}, !- Target Object
  2;                                      !- Inlet Port

OS:PortList,
  {2c8bef30-28c7-4ece-8d45-5ac83f8cba40}, !- Handle
  {7e88e776-2d66-4cdd-a714-2b7fd4e8c105}, !- Name
  ;                                       !- HVAC Component

OS:PortList,
  {883ffdaa-710a-4185-b011-528c0ef4b280}, !- Handle
  {12d5322d-60e8-4ee9-bb32-9756801410d7}, !- Name
  ,                                       !- HVAC Component
  {279ab79d-fe7c-4c75-8884-d579e3db26cd}; !- Port 1

OS:PortList,
  {25c7f9b0-980d-4b63-8410-60122db2ce19}, !- Handle
  {9d0cd58e-87ef-477e-81fb-eef2fbfd4b40}, !- Name
  ;                                       !- HVAC Component

OS:Node,
  {34a15059-7ea1-4c89-bac2-b2ae9e4e9560}, !- Handle
  Node 2,                                 !- Name
  {c7682e1d-df45-4d38-951c-1b45a0c018a3}, !- Inlet Port
  ;                                       !- Outlet Port

OS:Connection,
  {c7682e1d-df45-4d38-951c-1b45a0c018a3}, !- Handle
  {3d80866a-b931-4eea-9bfd-1c74eb9aed86}, !- Name
  ,                                       !- Source Object
  11,                                     !- Outlet Port
  {34a15059-7ea1-4c89-bac2-b2ae9e4e9560}, !- Target Object
  2;                                      !- Inlet Port

OS:PortList,
  {9fa302ea-cf43-4248-a45e-e37bceee878b}, !- Handle
  {e6cd2261-1a3c-4472-82eb-7f0e0e4becc6}, !- Name
  ;                                       !- HVAC Component

OS:PortList,
  {521c2f5f-dd8a-4f36-9848-de4ac12f1474}, !- Handle
  {91bb5a92-b816-459e-9813-97a30b6fdbab}, !- Name
  ,                                       !- HVAC Component
  {111a288f-2735-4045-badd-8b7428a017d8}; !- Port 1

OS:PortList,
  {762b432a-4ed9-46e9-b8f1-8c067eb09e86}, !- Handle
  {bc1f5373-7dae-4aa7-8570-1fda42a86aca}, !- Name
  ;                                       !- HVAC Component

OS:Node,
  {6ce914d5-f10a-4384-8c16-8e379522e39b}, !- Handle
  Node 3,                                 !- Name
  {654e43d5-e9b1-44f4-b835-0c9e32d039e4}, !- Inlet Port
  ;                                       !- Outlet Port

OS:Connection,
  {654e43d5-e9b1-44f4-b835-0c9e32d039e4}, !- Handle
  {28feed90-14b4-4c8d-bf65-5a23a01afb36}, !- Name
  ,                                       !- Source Object
  11,                                     !- Outlet Port
  {6ce914d5-f10a-4384-8c16-8e379522e39b}, !- Target Object
  2;                                      !- Inlet Port

OS:PortList,
  {0e525cae-8970-4cc2-8e2a-91fb40cb9887}, !- Handle
  {23912a15-7434-4bf2-a53e-6049d471a123}, !- Name
  ;                                       !- HVAC Component

OS:PortList,
  {7997eb60-25d8-419e-aa20-85532415936e}, !- Handle
  {9e775bb5-f16c-4c8c-bc02-c52e59251c37}, !- Name
  ,                                       !- HVAC Component
  {d17c3754-5a75-4508-864b-895aabf64297}; !- Port 1

OS:PortList,
  {1f8de7a1-5b06-4bec-897a-f1328483e79b}, !- Handle
  {b5dbf0b0-2364-49cd-8f1c-5c73df91219d}, !- Name
  ;                                       !- HVAC Component

OS:Node,
  {5a04dd77-ab47-4a47-9e37-7896156097b7}, !- Handle
  Node 4,                                 !- Name
  {9353df0d-ef47-4a29-9ebb-c6bed89f7979}, !- Inlet Port
  ;                                       !- Outlet Port

OS:Connection,
  {9353df0d-ef47-4a29-9ebb-c6bed89f7979}, !- Handle
  {d6c324a5-2fb9-463f-aca2-c5bfafbcdede}, !- Name
  ,                                       !- Source Object
  11,                                     !- Outlet Port
  {5a04dd77-ab47-4a47-9e37-7896156097b7}, !- Target Object
  2;                                      !- Inlet Port

OS:PortList,
  {1fe8d746-8017-49eb-a48b-7bdb178f74a2}, !- Handle
  {be8d61ad-fbac-40c6-bdb8-aeb76c52cda1}, !- Name
  ;                                       !- HVAC Component

OS:PortList,
  {cbd51988-d101-4738-a0a0-d31396eea043}, !- Handle
  {20990302-6f54-4ae5-9594-8d8b47d124ba}, !- Name
  ,                                       !- HVAC Component
  {4e0bb512-3777-44ec-8b6d-4b1344833724}; !- Port 1

OS:PortList,
  {9bea8a11-9616-4419-a9db-e490d29d4b09}, !- Handle
  {f58340bd-3ff2-47f9-9b32-d0bc63b6d097}, !- Name
  ;                                       !- HVAC Component

OS:Node,
  {5775779a-41d8-44d8-ab2a-27c72c1d1673}, !- Handle
  Node 5,                                 !- Name
  {299a2885-d811-4061-b1cd-4524278119a5}, !- Inlet Port
  ;                                       !- Outlet Port

OS:Connection,
  {299a2885-d811-4061-b1cd-4524278119a5}, !- Handle
  {9716b055-8a5d-418b-970e-8cd0c41ca3f4}, !- Name
  ,                                       !- Source Object
  11,                                     !- Outlet Port
  {5775779a-41d8-44d8-ab2a-27c72c1d1673}, !- Target Object
  2;                                      !- Inlet Port

OS:PortList,
  {193dc32d-7265-421c-a103-269b2a5bbef6}, !- Handle
  {f1f93e77-cdce-4265-8bd6-1e5867f40dc7}, !- Name
  ;                                       !- HVAC Component

OS:PortList,
  {5b0e489b-5ff9-4b05-a8c4-fa3d39baad05}, !- Handle
  {6872133f-fb30-4a1c-8c23-3a98cac98cf4}, !- Name
  ,                                       !- HVAC Component
  {602317de-b661-4312-968a-86d6770d7663}; !- Port 1

OS:PortList,
  {db579137-103a-46cc-9263-2c06a0341dc7}, !- Handle
  {816404d1-39f8-41ca-95b4-01f2164c6ee6}, !- Name
  ;                                       !- HVAC Component

OS:Node,
  {1e5056c7-8f7e-4722-a25e-60a485f2107d}, !- Handle
  Node 6,                                 !- Name
  {887c2a4e-23c2-465b-9ef8-cbece47eadfc}, !- Inlet Port
  ;                                       !- Outlet Port

OS:Connection,
  {887c2a4e-23c2-465b-9ef8-cbece47eadfc}, !- Handle
  {bdf95e42-8e49-4db5-be97-ec4cf11f09f7}, !- Name
  ,                                       !- Source Object
  11,                                     !- Outlet Port
  {1e5056c7-8f7e-4722-a25e-60a485f2107d}, !- Target Object
  2;                                      !- Inlet Port

OS:PortList,
  {9dcf1ab0-ba6d-48fe-a041-575b1dadad9b}, !- Handle
  {d5747d35-534d-4377-bc84-a0985ba19ab0}, !- Name
  ;                                       !- HVAC Component

OS:PortList,
  {ee2493cf-7c18-484f-915d-238898db3de3}, !- Handle
  {b62c32ee-c3c6-475f-a697-af38ef79cab5}, !- Name
  ,                                       !- HVAC Component
  {0a057bd7-4121-4e45-8a1f-a9d06ce97f32}; !- Port 1

OS:PortList,
  {ea29b761-7ff4-4aae-a5b0-c998de4b7ff7}, !- Handle
  {e6c0656b-8454-4949-a863-2656cbccfb47}, !- Name
  ;                                       !- HVAC Component

OS:Node,
  {dc8f1805-a5c6-4f6c-b230-bdac25564e26}, !- Handle
  Node 7,                                 !- Name
  {70c3ec31-c7c2-4b81-9249-5b2e0731bcd8}, !- Inlet Port
  ;                                       !- Outlet Port

OS:Connection,
  {70c3ec31-c7c2-4b81-9249-5b2e0731bcd8}, !- Handle
  {463ada62-de7a-498a-8d10-1465813154df}, !- Name
  ,                                       !- Source Object
  11,                                     !- Outlet Port
  {dc8f1805-a5c6-4f6c-b230-bdac25564e26}, !- Target Object
  2;                                      !- Inlet Port

OS:PortList,
  {6147e388-bd2d-4cd3-8708-798b5d5f6611}, !- Handle
  {bb200606-80ff-41fd-98a6-1b039c3bbbd9}, !- Name
  ;                                       !- HVAC Component

OS:PortList,
  {e4b9c2f9-58a3-45b3-be45-f401191b8712}, !- Handle
  {05e247ba-d1ed-45ba-a14b-6af0d5f28d90}, !- Name
  ,                                       !- HVAC Component
  {8b27931c-e131-4056-87e8-377f5e1bf8c0}; !- Port 1

OS:PortList,
  {a23ee017-24fe-453d-b711-5779a677168e}, !- Handle
  {14bd5bdc-4421-4a50-b983-31f46515ffbe}, !- Name
  ;                                       !- HVAC Component

OS:Node,
  {10978fab-3c77-44de-b27f-380e4bf2f5f2}, !- Handle
  Node 8,                                 !- Name
  {98c986d8-aba5-4465-8e3a-342751e7fb1e}, !- Inlet Port
  ;                                       !- Outlet Port

OS:Connection,
  {98c986d8-aba5-4465-8e3a-342751e7fb1e}, !- Handle
  {a536b919-cf75-49d0-b15a-2a6055fd8cf4}, !- Name
  ,                                       !- Source Object
  11,                                     !- Outlet Port
  {10978fab-3c77-44de-b27f-380e4bf2f5f2}, !- Target Object
  2;                                      !- Inlet Port

OS:PortList,
  {0538e3cb-1b41-4ced-8c37-65405378d6fe}, !- Handle
  {f5d38092-6ce3-421a-b932-eb807e9e9054}, !- Name
  ;                                       !- HVAC Component

OS:PortList,
  {25bdf29d-dde2-4478-b5eb-6bfdf76b527a}, !- Handle
  {21d451f3-e2c4-45af-86d0-684bdebb6083}, !- Name
  ,                                       !- HVAC Component
  {ca47e15c-98d4-4c67-92cf-f58d88bc9725}; !- Port 1

OS:PortList,
  {8d8efcbc-3291-48a1-b228-fc86f4e9ac82}, !- Handle
  {e9e599ab-edab-4ad6-8390-8a569130345f}, !- Name
  ;                                       !- HVAC Component

OS:Node,
  {c19ef924-7350-4c18-be91-b5507deb43d4}, !- Handle
  Node 9,                                 !- Name
  {1d4716ec-fd8a-4244-a6a9-3ea2ff92407d}, !- Inlet Port
  ;                                       !- Outlet Port

OS:Connection,
  {1d4716ec-fd8a-4244-a6a9-3ea2ff92407d}, !- Handle
  {f86194ff-1a2e-43ef-ba2d-6801d2d7134a}, !- Name
  ,                                       !- Source Object
  11,                                     !- Outlet Port
  {c19ef924-7350-4c18-be91-b5507deb43d4}, !- Target Object
  2;                                      !- Inlet Port

OS:PortList,
  {83426bbe-e91c-4de1-ad8b-955a3bd12d1d}, !- Handle
  {c15da1c6-61ef-40c6-b793-227a857f2025}, !- Name
  ;                                       !- HVAC Component

OS:PortList,
  {3ab52610-dc5c-4df9-8f7b-c4c0f6d74ccf}, !- Handle
  {cd22a929-89e0-42ee-85be-9b8948595012}, !- Name
  ,                                       !- HVAC Component
  {9d334606-c8b5-4a2a-a6c4-673f6ef72d61}; !- Port 1

OS:PortList,
  {b97f999a-72b7-47e4-83bc-4b3040ba8be0}, !- Handle
  {89be20ac-d19d-43ab-bd95-8260a5a2a884}, !- Name
  ;                                       !- HVAC Component

OS:Node,
  {c3eae953-0db2-4e98-83b0-0812dd531304}, !- Handle
  Node 10,                                !- Name
  {4a1211f3-be26-4e44-b5df-9feb5d4600b4}, !- Inlet Port
  ;                                       !- Outlet Port

OS:Connection,
  {4a1211f3-be26-4e44-b5df-9feb5d4600b4}, !- Handle
  {6d4691d5-462b-4bb3-ab99-dfb0b6ba127d}, !- Name
  ,                                       !- Source Object
  11,                                     !- Outlet Port
  {c3eae953-0db2-4e98-83b0-0812dd531304}, !- Target Object
  2;                                      !- Inlet Port

OS:PortList,
  {97891dc2-fa8d-4082-8a71-d94650ead2f6}, !- Handle
  {e85fce94-fe89-411d-8a5c-752d9ebf5b20}, !- Name
  ;                                       !- HVAC Component

OS:PortList,
  {008ca259-da2e-4356-b8b9-f39c86557e25}, !- Handle
  {9449ceb5-3516-4a58-a834-fd1c90ba5689}, !- Name
  ;                                       !- HVAC Component

OS:PortList,
  {117db988-d8fe-4911-ad47-cd26b01e0b1d}, !- Handle
  {b25a8270-be44-452f-9812-baaab7a2435d}, !- Name
  ;                                       !- HVAC Component

OS:Node,
  {d3546921-2ca0-4218-9fd9-527baee238e1}, !- Handle
  Node 11,                                !- Name
  {dc2509bb-e0b1-44d2-a36e-18afc78ef404}, !- Inlet Port
  ;                                       !- Outlet Port

OS:Connection,
  {dc2509bb-e0b1-44d2-a36e-18afc78ef404}, !- Handle
  {163b2ec1-3818-49f8-9571-676ab82bb274}, !- Name
  ,                                       !- Source Object
  11,                                     !- Outlet Port
  {d3546921-2ca0-4218-9fd9-527baee238e1}, !- Target Object
  2;                                      !- Inlet Port

OS:PortList,
  {962f63f8-989f-4422-9f5d-fc859f228ab1}, !- Handle
  {e97ac4cb-7b60-4d5f-aacc-b9c66d245d5a}, !- Name
  ;                                       !- HVAC Component

OS:PortList,
  {277b16c1-3fc1-4ff7-9f20-ad5d54a7cb79}, !- Handle
  {24c04980-111c-4c71-8f3e-d8bb11503fe6}, !- Name
  ;                                       !- HVAC Component

OS:PortList,
  {7df6880c-1e1b-49ca-a5e3-01f384fa0989}, !- Handle
  {db1e8f40-01b6-4eda-931e-384e1e8a121c}, !- Name
  ;                                       !- HVAC Component

OS:Node,
  {0045ecbf-d4ff-4d87-a2b1-9ab4fa0a9cc7}, !- Handle
  Node 12,                                !- Name
  {4c750948-8564-4ca2-b07c-94fe3b17ad4a}, !- Inlet Port
  ;                                       !- Outlet Port

OS:Connection,
  {4c750948-8564-4ca2-b07c-94fe3b17ad4a}, !- Handle
  {c79cfc62-4617-49e5-a576-0a4f4a58b5ea}, !- Name
  ,                                       !- Source Object
  11,                                     !- Outlet Port
  {0045ecbf-d4ff-4d87-a2b1-9ab4fa0a9cc7}, !- Target Object
  2;                                      !- Inlet Port

OS:PortList,
  {7db75ea7-2ff3-4df3-9c4f-6dd3160bc94f}, !- Handle
  {0ac35a26-5a79-4226-a167-b17cd3af1424}, !- Name
  ;                                       !- HVAC Component

OS:PortList,
  {2eb83495-2dd4-486c-83b3-d80d02489fad}, !- Handle
  {efa3d371-47b7-4fb6-95f3-9d24b701255b}, !- Name
  ;                                       !- HVAC Component

OS:PortList,
  {33ad9c8f-d691-4d81-8b46-b374ec90fab2}, !- Handle
  {32d638ed-fa09-4007-8dbd-d2dc1d1a7012}, !- Name
  ;                                       !- HVAC Component

OS:Node,
  {8cb303be-1be2-455e-9060-1ed92126dac9}, !- Handle
  Node 13,                                !- Name
  {37f1c479-1d80-475a-94e9-e272c6ca4d04}, !- Inlet Port
  ;                                       !- Outlet Port

OS:Connection,
  {37f1c479-1d80-475a-94e9-e272c6ca4d04}, !- Handle
  {8331c2fb-5fdc-418b-be8a-d13441309a59}, !- Name
  ,                                       !- Source Object
  11,                                     !- Outlet Port
  {8cb303be-1be2-455e-9060-1ed92126dac9}, !- Target Object
  2;                                      !- Inlet Port

OS:PortList,
  {81d2d073-95c5-4d06-9125-4cfdf641bdca}, !- Handle
  {fe467fc1-e4e2-44c1-961e-ae66c7374834}, !- Name
  ;                                       !- HVAC Component

OS:PortList,
  {0c3c866d-5513-4cf2-af9f-63112f5e2e3f}, !- Handle
  {5bb5b922-6a37-40bf-872e-7f63e94ce3eb}, !- Name
  ;                                       !- HVAC Component

OS:PortList,
  {d57e5293-36d6-4a61-acdd-c43f623de64b}, !- Handle
  {0e20c8cc-ab5a-4376-9d58-d763653adda8}, !- Name
  ;                                       !- HVAC Component

OS:Node,
  {99e37737-6278-40f4-902c-094b760fa4c2}, !- Handle
  Node 14,                                !- Name
  {2dfab662-f5ed-4915-9ec9-689f2b9dbe52}, !- Inlet Port
  ;                                       !- Outlet Port

OS:Connection,
  {2dfab662-f5ed-4915-9ec9-689f2b9dbe52}, !- Handle
  {57baa716-703f-42b6-b00f-b385c0c09728}, !- Name
  ,                                       !- Source Object
  11,                                     !- Outlet Port
  {99e37737-6278-40f4-902c-094b760fa4c2}, !- Target Object
  2;                                      !- Inlet Port

OS:PortList,
  {8acceaf8-c18a-4f91-b31f-34f3a9a9f29e}, !- Handle
  {46b3e31c-d1c6-4bbc-9159-2824f4085b57}, !- Name
  ;                                       !- HVAC Component

OS:PortList,
  {46fd4a2c-3ff9-4291-a336-67cc80de42be}, !- Handle
  {ff001734-2c5d-415f-942e-7c3b981a7c31}, !- Name
  ;                                       !- HVAC Component

OS:PortList,
  {0ddc05da-23f9-439b-8e26-4b9933662a28}, !- Handle
  {ed7dfec9-f5b4-464c-86da-e56a179ac9a8}, !- Name
  ;                                       !- HVAC Component

OS:Node,
  {dabe6b95-7ec8-4db8-a27c-6280c9b6db70}, !- Handle
  Node 15,                                !- Name
  {724faab1-69d7-467c-9e3f-410a82ddae30}, !- Inlet Port
  ;                                       !- Outlet Port

OS:Connection,
  {724faab1-69d7-467c-9e3f-410a82ddae30}, !- Handle
  {dd062452-c52f-444e-b15d-a172d06a0152}, !- Name
  ,                                       !- Source Object
  11,                                     !- Outlet Port
  {dabe6b95-7ec8-4db8-a27c-6280c9b6db70}, !- Target Object
  2;                                      !- Inlet Port

OS:PortList,
  {3c15eb26-81c6-4b8b-ace5-75cbe90d6dc8}, !- Handle
  {b25661db-6941-4f58-bb2c-bebc168ad0e4}, !- Name
  ;                                       !- HVAC Component

OS:PortList,
  {88851ff0-a4b9-4417-baae-1dfcfaaec599}, !- Handle
  {b85d401b-1a89-4bdd-b4f7-2a611f62b547}, !- Name
  ;                                       !- HVAC Component

OS:PortList,
  {93ad38eb-0449-46c9-84d4-22dd1b74d280}, !- Handle
  {59c90ecd-a769-4705-9159-9f6e8aa1d488}, !- Name
  ;                                       !- HVAC Component

OS:Node,
  {315d7d8c-9b0d-4467-8eec-1303ad47901a}, !- Handle
  Node 16,                                !- Name
  {8aa22f6b-f98c-4fd8-808b-841a255abdc7}, !- Inlet Port
  ;                                       !- Outlet Port

OS:Connection,
  {8aa22f6b-f98c-4fd8-808b-841a255abdc7}, !- Handle
  {2c074db4-0d59-4ce4-9fe4-47d014bf9596}, !- Name
  ,                                       !- Source Object
  11,                                     !- Outlet Port
  {315d7d8c-9b0d-4467-8eec-1303ad47901a}, !- Target Object
  2;                                      !- Inlet Port

OS:PortList,
  {77b8da2b-4ba2-4920-9396-3220236305d4}, !- Handle
  {3b936de4-2156-4100-9c79-fcc3efd78ab8}, !- Name
  ;                                       !- HVAC Component

OS:PortList,
  {42bb5c26-35a7-432f-87db-17f12b3e1c1b}, !- Handle
  {b8977495-5b1a-4b5f-b0d0-538c5d614766}, !- Name
  ;                                       !- HVAC Component

OS:PortList,
  {c3b7ebfc-b882-4fbb-a94b-4f15edb7935d}, !- Handle
  {bb937110-a5ad-4fd9-b1e5-d51e41b132bf}, !- Name
  ;                                       !- HVAC Component

OS:Node,
  {6883fae0-7e7a-4965-8c9d-30af3afc0ff1}, !- Handle
  Node 17,                                !- Name
  {eeed388c-5ca7-466f-9a07-9b13aa3e63af}, !- Inlet Port
  ;                                       !- Outlet Port

OS:Connection,
  {eeed388c-5ca7-466f-9a07-9b13aa3e63af}, !- Handle
  {14f0fe17-c7eb-4910-bc30-e4e65874c32d}, !- Name
  ,                                       !- Source Object
  11,                                     !- Outlet Port
  {6883fae0-7e7a-4965-8c9d-30af3afc0ff1}, !- Target Object
  2;                                      !- Inlet Port

OS:PortList,
  {e0f633fa-8397-4317-a542-e723b694e479}, !- Handle
  {e4a1af74-3e03-4786-bc23-384e1680d2f9}, !- Name
  ;                                       !- HVAC Component

OS:PortList,
  {46344243-68b0-4818-8219-8b31bcf6b2ea}, !- Handle
  {bc07cb57-5cc9-4c05-947c-b7ca24f5d292}, !- Name
  ;                                       !- HVAC Component

OS:PortList,
  {73d46c5b-7668-4490-8ed3-e20d9af78929}, !- Handle
  {6af39109-07a8-4896-808b-41223712c3d1}, !- Name
  ;                                       !- HVAC Component

OS:Node,
  {d414067d-462f-49f8-8feb-02a84b8441fe}, !- Handle
  Node 18,                                !- Name
  {10a9af02-655b-4e96-8be4-b498b80c233a}, !- Inlet Port
  ;                                       !- Outlet Port

OS:Connection,
  {10a9af02-655b-4e96-8be4-b498b80c233a}, !- Handle
  {a5979f71-8a03-4d80-8ff5-a3d19a3c29df}, !- Name
  ,                                       !- Source Object
  11,                                     !- Outlet Port