
OS:Version,
  {f3790418-1439-442f-81d5-20a757af38cf}, !- Handle
  3.0.1;                                  !- Version Identifier

OS:Facility,
  {8172c35b-6791-4210-8906-9c9be487f12a}; !- Handle

OS:Site,
  {934196f8-a663-4e4e-b5a1-e7b21b76e4ea}, !- Handle
  Denver Centennial  Golden   Nr_CO_USA,  !- Name
  39.74,                                  !- Latitude {deg}
  -105.18,                                !- Longitude {deg}
  -7,                                     !- Time Zone {hr}
  1829,                                   !- Elevation {m}
  City;                                   !- Terrain

OS:SimulationControl,
  {2b599cea-fc63-4359-b5c8-c281aba03d90}, !- Handle
  ,                                       !- Do Zone Sizing Calculation
  ,                                       !- Do System Sizing Calculation
  ,                                       !- Do Plant Sizing Calculation
  Yes,                                    !- Run Simulation for Sizing Periods
  No,                                     !- Run Simulation for Weather File Run Periods
  ,                                       !- Loads Convergence Tolerance Value {W}
  ,                                       !- Temperature Convergence Tolerance Value {deltaC}
  ,                                       !- Solar Distribution
  ,                                       !- Maximum Number of Warmup Days
  ,                                       !- Minimum Number of Warmup Days
  Yes,                                    !- Do HVAC Sizing Simulation for Sizing Periods
  1;                                      !- Maximum Number of HVAC Sizing Simulation Passes

OS:Sizing:Parameters,
  {a635ffee-ef4a-45a5-8606-4075829c83e3}, !- Handle
  1.25,                                   !- Heating Sizing Factor
  1.15;                                   !- Cooling Sizing Factor

OS:Timestep,
  {08b5494c-15a7-414e-a33c-f60e6f0901d6}, !- Handle
  1;                                      !- Number of Timesteps per Hour

OS:ShadowCalculation,
  {7cd280e7-d6dc-4d19-aecd-38c56f631b55}, !- Handle
  PolygonClipping,                        !- Shading Calculation Method
  ,                                       !- Shading Calculation Update Frequency Method
  20,                                     !- Shading Calculation Update Frequency
  15000,                                  !- Maximum Figures in Shadow Overlap Calculations
  ,                                       !- Polygon Clipping Algorithm
  512,                                    !- Pixel Counting Resolution
  ,                                       !- Sky Diffuse Modeling Algorithm
  No,                                     !- Output External Shading Calculation Results
  No,                                     !- Disable Self-Shading Within Shading Zone Groups
  No;                                     !- Disable Self-Shading From Shading Zone Groups to Other Zones

OS:HeatBalanceAlgorithm,
  {784053ab-ac68-42c7-8a62-e651fa82c86a}, !- Handle
  ConductionTransferFunction,             !- Algorithm
  200;                                    !- Surface Temperature Upper Limit {C}

OS:RunPeriod,
  {2abbea41-f56a-48e6-946e-a1b58aac0efd}, !- Handle
  Run Period 1,                           !- Name
  6,                                      !- Begin Month
  1,                                      !- Begin Day of Month
  6,                                      !- End Month
  1,                                      !- End Day of Month
  ,                                       !- Use Weather File Holidays and Special Days
  ,                                       !- Use Weather File Daylight Saving Period
  ,                                       !- Apply Weekend Holiday Rule
  ,                                       !- Use Weather File Rain Indicators
  ,                                       !- Use Weather File Snow Indicators
  ;                                       !- Number of Times Runperiod to be Repeated

OS:LifeCycleCost:Parameters,
  {1a122538-ce04-4d87-a9cc-6b4535b4909b}, !- Handle
  ,                                       !- Analysis Type
  ,                                       !- Discounting Convention
  ,                                       !- Inflation Approach
  ,                                       !- Real Discount Rate
  ,                                       !- Nominal Discount Rate
  ,                                       !- Inflation
  ,                                       !- Base Date Month
  ,                                       !- Base Date Year
  ,                                       !- Service Date Month
  ,                                       !- Service Date Year
  ;                                       !- Length of Study Period in Years

OS:WeatherFile,
  {1ac9b608-00be-43a2-89dd-4654e0546325}, !- Handle
  Denver Centennial  Golden   Nr,         !- City
  CO,                                     !- State Province Region
  USA,                                    !- Country
  TMY3,                                   !- Data Source
  724666,                                 !- WMO Number
  39.74,                                  !- Latitude {deg}
  -105.18,                                !- Longitude {deg}
  -7,                                     !- Time Zone {hr}
  1829,                                   !- Elevation {m}
  C:/urbanopt-scenario-gem/spec/test/example_scenario/1/003_create_typical_building_from_model/SR1/in.epw, !- Url
  BDF687C1;                               !- Checksum

OS:Site:WaterMainsTemperature,
  {af7972e9-9b3d-41a9-9d8d-8988f44f32f9}, !- Handle
  Correlation,                            !- Calculation Method
  ,                                       !- Temperature Schedule Name
  9.7,                                    !- Annual Average Outdoor Air Temperature {C}
  22.8;                                   !- Maximum Difference In Monthly Average Outdoor Air Temperatures {deltaC}

OS:SizingPeriod:DesignDay,
  {ad08b4f5-46ed-4920-871a-d7f1038d1b9e}, !- Handle
  Denver Centennial  Golden   N Ann Clg .4% Condns DB=>MWB 1, !- Name
  33,                                     !- Maximum Dry-Bulb Temperature {C}
  15.2,                                   !- Daily Dry-Bulb Temperature Range {deltaC}
  15.7,                                   !- Humidity Indicating Conditions at Maximum Dry-Bulb
  81198,                                  !- Barometric Pressure {Pa}
  4.9,                                    !- Wind Speed {m/s}
  0,                                      !- Wind Direction {deg}
  0,                                      !- Sky Clearness
  0,                                      !- Rain Indicator
  0,                                      !- Snow Indicator
  21,                                     !- Day of Month
  7,                                      !- Month
  SummerDesignDay,                        !- Day Type
  0,                                      !- Daylight Saving Time Indicator
  Wetbulb,                                !- Humidity Indicating Type
  ,                                       !- Humidity Indicating Day Schedule Name
  DefaultMultipliers,                     !- Dry-Bulb Temperature Range Modifier Type
  ,                                       !- Dry-Bulb Temperature Range Modifier Schedule Name
  ASHRAETau,                              !- Solar Model Indicator
  ,                                       !- Beam Solar Day Schedule Name
  ,                                       !- Diffuse Solar Day Schedule Name
  0.424,                                  !- ASHRAE Taub {dimensionless}
  2.025;                                  !- ASHRAE Taud {dimensionless}

OS:SizingPeriod:DesignDay,
  {313ac362-682e-4cbf-8021-90754073ecdd}, !- Handle
  Denver Centennial  Golden   N Ann Clg .4% Condns WB=>MDB 1, !- Name
  27.3,                                   !- Maximum Dry-Bulb Temperature {C}
  15.2,                                   !- Daily Dry-Bulb Temperature Range {deltaC}
  18.4,                                   !- Humidity Indicating Conditions at Maximum Dry-Bulb
  81198,                                  !- Barometric Pressure {Pa}
  4.9,                                    !- Wind Speed {m/s}
  0,                                      !- Wind Direction {deg}
  0,                                      !- Sky Clearness
  0,                                      !- Rain Indicator
  0,                                      !- Snow Indicator
  21,                                     !- Day of Month
  7,                                      !- Month
  SummerDesignDay,                        !- Day Type
  0,                                      !- Daylight Saving Time Indicator
  Wetbulb,                                !- Humidity Indicating Type
  ,                                       !- Humidity Indicating Day Schedule Name
  DefaultMultipliers,                     !- Dry-Bulb Temperature Range Modifier Type
  ,                                       !- Dry-Bulb Temperature Range Modifier Schedule Name
  ASHRAETau,                              !- Solar Model Indicator
  ,                                       !- Beam Solar Day Schedule Name
  ,                                       !- Diffuse Solar Day Schedule Name
  0.424,                                  !- ASHRAE Taub {dimensionless}
  2.025;                                  !- ASHRAE Taud {dimensionless}

OS:SizingPeriod:DesignDay,
  {8c27c52d-75c5-45a1-9909-737c7f1f75b7}, !- Handle
  Denver Centennial  Golden   N Ann Htg 99.6% Condns DB 1, !- Name
  -18.8,                                  !- Maximum Dry-Bulb Temperature {C}
  0,                                      !- Daily Dry-Bulb Temperature Range {deltaC}
  -18.8,                                  !- Humidity Indicating Conditions at Maximum Dry-Bulb
  81198,                                  !- Barometric Pressure {Pa}
  3,                                      !- Wind Speed {m/s}
  340,                                    !- Wind Direction {deg}
  0,                                      !- Sky Clearness
  0,                                      !- Rain Indicator
  0,                                      !- Snow Indicator
  21,                                     !- Day of Month
  12,                                     !- Month
  WinterDesignDay,                        !- Day Type
  0,                                      !- Daylight Saving Time Indicator
  Wetbulb,                                !- Humidity Indicating Type
  ,                                       !- Humidity Indicating Day Schedule Name
  DefaultMultipliers,                     !- Dry-Bulb Temperature Range Modifier Type
  ,                                       !- Dry-Bulb Temperature Range Modifier Schedule Name
  ASHRAEClearSky;                         !- Solar Model Indicator

OS:ClimateZones,
  {e3495285-23b6-4bcc-86bc-7dd4b728e203}, !- Handle
  ASHRAE,                                 !- Climate Zone Institution Name 1
  ANSI/ASHRAE Standard 169,               !- Climate Zone Document Name 1
  2006,                                   !- Climate Zone Document Year 1
  5B;                                     !- Climate Zone Value 1

OS:YearDescription,
  {11c89e36-2e3f-44ed-8797-5d47d3242c5c}, !- Handle
  2012,                                   !- Calendar Year
  ,                                       !- Day of Week for Start Day
  ;                                       !- Is Leap Year

OS:Building,
  {52db654e-a366-4e1e-a36c-2cd83de21b65}, !- Handle
  90.1-2004|SmallOffice,                  !- Name
  ,                                       !- Building Sector Type
  ,                                       !- North Axis {deg}
  ,                                       !- Nominal Floor to Floor Height {m}
  ,                                       !- Space Type Name
  {b439e2f3-115d-46d8-95e2-5632252ef8bf}, !- Default Construction Set Name
  ,                                       !- Default Schedule Set Name
  ,                                       !- Standards Number of Stories
  ,                                       !- Standards Number of Above Ground Stories
  ,                                       !- Standards Template
  Office;                                 !- Standards Building Type

OS:SpaceType,
  {18880c3b-6c53-4670-a8b8-bc315fce5df4}, !- Handle
  Office WholeBuilding - Sm Office - 90.1-2004, !- Name
  ,                                       !- Default Construction Set Name
  {3d0c0daa-d9e1-4560-9bc2-0a69e9dbaab3}, !- Default Schedule Set Name
  {6e222cf1-6d9e-418c-820e-96a34c882f52}, !- Group Rendering Name
  {c3757af5-c828-470a-a67c-d7619dd67d4a}, !- Design Specification Outdoor Air Object Name
  ,                                       !- Standards Template
  Office,                                 !- Standards Building Type
  WholeBuilding - Sm Office;              !- Standards Space Type

OS:Rendering:Color,
  {6e222cf1-6d9e-418c-820e-96a34c882f52}, !- Handle
  Office WholeBuilding - Sm Office,       !- Name
  120,                                    !- Rendering Red Value
  230,                                    !- Rendering Green Value
  199;                                    !- Rendering Blue Value

OS:BuildingStory,
  {3953dd82-38a5-4398-b298-034201095d96}, !- Handle
  Story Ground,                           !- Name
  0,                                      !- Nominal Z Coordinate {m}
  3.048,                                  !- Nominal Floor to Floor Height {m}
  ,                                       !- Default Construction Set Name
  ,                                       !- Default Schedule Set Name
  ;                                       !- Group Rendering Name

OS:Space,
  {a8fd9528-1158-4a3a-96f4-718e9c2e9f18}, !- Handle
  Office WholeBuilding - Sm Office  - Story Ground, !- Name
  {18880c3b-6c53-4670-a8b8-bc315fce5df4}, !- Space Type Name
  ,                                       !- Default Construction Set Name
  ,                                       !- Default Schedule Set Name
  -0,                                     !- Direction of Relative North {deg}
  -5.9024266196201,                       !- X Origin {m}
  -3.93495107974674,                      !- Y Origin {m}
  0,                                      !- Z Origin {m}
  {3953dd82-38a5-4398-b298-034201095d96}, !- Building Story Name
  {4d6c0046-86dd-4b0e-9f09-a8452ea38edb}; !- Thermal Zone Name

OS:Surface,
  {e40fcf5c-1a04-45e9-a304-8f0b239c869b}, !- Handle
  Surface 1,                              !- Name
  Floor,                                  !- Surface Type
  ,                                       !- Construction Name
  {a8fd9528-1158-4a3a-96f4-718e9c2e9f18}, !- Space Name
  Ground,                                 !- Outside Boundary Condition
  ,                                       !- Outside Boundary Condition Object
  NoSun,                                  !- Sun Exposure
  NoWind,                                 !- Wind Exposure
  ,                                       !- View Factor to Ground
  ,                                       !- Number of Vertices
  2.66453525910038e-15, -4.44089209850063e-15, 0, !- X,Y,Z Vertex 1 {m}
  2.66453525910038e-15, 7.86990215949348, 0, !- X,Y,Z Vertex 2 {m}
  11.8048532392402, 7.86990215949348, 0,  !- X,Y,Z Vertex 3 {m}
  11.8048532392402, -4.44089209850063e-15, 0; !- X,Y,Z Vertex 4 {m}

OS:Surface,
  {4e0445b1-6b73-4183-961b-37e085da08d6}, !- Handle
  Surface 2,                              !- Name
  Wall,                                   !- Surface Type
  ,                                       !- Construction Name
  {a8fd9528-1158-4a3a-96f4-718e9c2e9f18}, !- Space Name
  Outdoors,                               !- Outside Boundary Condition
  ,                                       !- Outside Boundary Condition Object
  SunExposed,                             !- Sun Exposure
  WindExposed,                            !- Wind Exposure
  ,                                       !- View Factor to Ground
  ,                                       !- Number of Vertices
  2.66453525910038e-15, 7.86990215949348, 3.048, !- X,Y,Z Vertex 1 {m}
  2.66453525910038e-15, 7.86990215949348, 0, !- X,Y,Z Vertex 2 {m}
  2.66453525910038e-15, -4.44089209850063e-15, 0, !- X,Y,Z Vertex 3 {m}
  2.66453525910038e-15, -4.44089209850063e-15, 3.048; !- X,Y,Z Vertex 4 {m}

OS:Surface,
  {3e81dd07-89f0-4a67-bb8e-403c9d2af56a}, !- Handle
  Surface 3,                              !- Name
  Wall,                                   !- Surface Type
  ,                                       !- Construction Name
  {a8fd9528-1158-4a3a-96f4-718e9c2e9f18}, !- Space Name
  Outdoors,                               !- Outside Boundary Condition
  ,                                       !- Outside Boundary Condition Object
  SunExposed,                             !- Sun Exposure
  WindExposed,                            !- Wind Exposure
  ,                                       !- View Factor to Ground
  ,                                       !- Number of Vertices
  11.8048532392402, 7.86990215949348, 3.048, !- X,Y,Z Vertex 1 {m}
  11.8048532392402, 7.86990215949348, 0,  !- X,Y,Z Vertex 2 {m}
  2.66453525910038e-15, 7.86990215949348, 0, !- X,Y,Z Vertex 3 {m}
  2.66453525910038e-15, 7.86990215949348, 3.048; !- X,Y,Z Vertex 4 {m}

OS:Surface,
  {020fe90a-875c-4aa9-a471-70df7ddfaa53}, !- Handle
  Surface 4,                              !- Name
  Wall,                                   !- Surface Type
  ,                                       !- Construction Name
  {a8fd9528-1158-4a3a-96f4-718e9c2e9f18}, !- Space Name
  Outdoors,                               !- Outside Boundary Condition
  ,                                       !- Outside Boundary Condition Object
  SunExposed,                             !- Sun Exposure
  WindExposed,                            !- Wind Exposure
  ,                                       !- View Factor to Ground
  ,                                       !- Number of Vertices
  11.8048532392402, -4.44089209850063e-15, 3.048, !- X,Y,Z Vertex 1 {m}
  11.8048532392402, -4.44089209850063e-15, 0, !- X,Y,Z Vertex 2 {m}
  11.8048532392402, 7.86990215949348, 0,  !- X,Y,Z Vertex 3 {m}
  11.8048532392402, 7.86990215949348, 3.048; !- X,Y,Z Vertex 4 {m}

OS:Surface,
  {258b48f6-760e-4c86-8fe7-b4f23e1915cf}, !- Handle
  Surface 5,                              !- Name
  Wall,                                   !- Surface Type
  ,                                       !- Construction Name
  {a8fd9528-1158-4a3a-96f4-718e9c2e9f18}, !- Space Name
  Outdoors,                               !- Outside Boundary Condition
  ,                                       !- Outside Boundary Condition Object
  SunExposed,                             !- Sun Exposure
  WindExposed,                            !- Wind Exposure
  ,                                       !- View Factor to Ground
  ,                                       !- Number of Vertices
  2.66453525910038e-15, -4.44089209850063e-15, 3.048, !- X,Y,Z Vertex 1 {m}
  2.66453525910038e-15, -4.44089209850063e-15, 0, !- X,Y,Z Vertex 2 {m}
  11.8048532392402, -4.44089209850063e-15, 0, !- X,Y,Z Vertex 3 {m}
  11.8048532392402, -4.44089209850063e-15, 3.048; !- X,Y,Z Vertex 4 {m}

OS:Surface,
  {df4868f2-4d63-4cf6-9360-f059748f7859}, !- Handle
  Surface 6,                              !- Name
  RoofCeiling,                            !- Surface Type
  ,                                       !- Construction Name
  {a8fd9528-1158-4a3a-96f4-718e9c2e9f18}, !- Space Name
  Outdoors,                               !- Outside Boundary Condition
  ,                                       !- Outside Boundary Condition Object
  SunExposed,                             !- Sun Exposure
  WindExposed,                            !- Wind Exposure
  ,                                       !- View Factor to Ground
  ,                                       !- Number of Vertices
  11.8048532392402, -4.44089209850063e-15, 3.048, !- X,Y,Z Vertex 1 {m}
  11.8048532392402, 7.86990215949348, 3.048, !- X,Y,Z Vertex 2 {m}
  2.66453525910038e-15, 7.86990215949348, 3.048, !- X,Y,Z Vertex 3 {m}
  2.66453525910038e-15, -4.44089209850063e-15, 3.048; !- X,Y,Z Vertex 4 {m}

OS:ThermalZone,
  {4d6c0046-86dd-4b0e-9f09-a8452ea38edb}, !- Handle
  Zone Office WholeBuilding - Sm Office  - Story Ground, !- Name
  1,                                      !- Multiplier
  ,                                       !- Ceiling Height {m}
  ,                                       !- Volume {m3}
  ,                                       !- Floor Area {m2}
  ,                                       !- Zone Inside Convection Algorithm
  ,                                       !- Zone Outside Convection Algorithm
  ,                                       !- Zone Conditioning Equipment List Name
  {ec5a5cf2-4949-4fae-81e2-ad1bb7133742}, !- Zone Air Inlet Port List
  {2e74a9e0-2fa7-4166-b075-3aead9620e5b}, !- Zone Air Exhaust Port List
  {445dc694-1947-4fed-8867-92e9eef8b3c0}, !- Zone Air Node Name
  {b7f8b889-2127-4b03-9260-1a3537ac9233}, !- Zone Return Air Port List
  ,                                       !- Primary Daylighting Control Name
  ,                                       !- Fraction of Zone Controlled by Primary Daylighting Control
  ,                                       !- Secondary Daylighting Control Name
  ,                                       !- Fraction of Zone Controlled by Secondary Daylighting Control
  ,                                       !- Illuminance Map Name
  ,                                       !- Group Rendering Name
  {0b4f565d-1c62-4e6d-b4ed-8ab14e0da369}, !- Thermostat Name
  No;                                     !- Use Ideal Air Loads

OS:Node,
  {3bb856b9-05d8-451c-a049-60c8f765110e}, !- Handle
  Zone Office WholeBuilding - Sm Office  - Story Ground Zone Air Node, !- Name
  {445dc694-1947-4fed-8867-92e9eef8b3c0}, !- Inlet Port
  ;                                       !- Outlet Port

OS:Connection,
  {445dc694-1947-4fed-8867-92e9eef8b3c0}, !- Handle
  {cb0d8451-1298-411a-af12-3af911deef3f}, !- Name
  {4d6c0046-86dd-4b0e-9f09-a8452ea38edb}, !- Source Object
  11,                                     !- Outlet Port
  {3bb856b9-05d8-451c-a049-60c8f765110e}, !- Target Object
  2;                                      !- Inlet Port

OS:PortList,
  {ec5a5cf2-4949-4fae-81e2-ad1bb7133742}, !- Handle
  {a5595d45-0261-4d4a-a591-98038f4feda1}, !- Name
  {4d6c0046-86dd-4b0e-9f09-a8452ea38edb}, !- HVAC Component
  {7baa842b-45ac-4fe4-8f8f-f818de189020}; !- Port 1

OS:PortList,
  {2e74a9e0-2fa7-4166-b075-3aead9620e5b}, !- Handle
  {bb8adab7-2eda-4960-8365-85220c04ac7a}, !- Name
  {4d6c0046-86dd-4b0e-9f09-a8452ea38edb}; !- HVAC Component

OS:PortList,
  {b7f8b889-2127-4b03-9260-1a3537ac9233}, !- Handle
  {ea012803-347b-4973-ac69-8297526e6d36}, !- Name
  {4d6c0046-86dd-4b0e-9f09-a8452ea38edb}, !- HVAC Component
  {bf1308a5-84c2-4b90-ac72-f21466ef785d}; !- Port 1

OS:Sizing:Zone,
  {6146038e-b9ef-4584-b8d9-6bcb7726d38a}, !- Handle
  {4d6c0046-86dd-4b0e-9f09-a8452ea38edb}, !- Zone or ZoneList Name
  SupplyAirTemperature,                   !- Zone Cooling Design Supply Air Temperature Input Method
  12.7777777777778,                       !- Zone Cooling Design Supply Air Temperature {C}
  11.11,                                  !- Zone Cooling Design Supply Air Temperature Difference {deltaC}
  SupplyAirTemperature,                   !- Zone Heating Design Supply Air Temperature Input Method
  50.0000000000001,                       !- Zone Heating Design Supply Air Temperature {C}
  11.11,                                  !- Zone Heating Design Supply Air Temperature Difference {deltaC}
  0.0085,                                 !- Zone Cooling Design Supply Air Humidity Ratio {kg-H2O/kg-air}
  0.008,                                  !- Zone Heating Design Supply Air Humidity Ratio {kg-H2O/kg-air}
  ,                                       !- Zone Heating Sizing Factor
  ,                                       !- Zone Cooling Sizing Factor
  DesignDay,                              !- Cooling Design Air Flow Method
  ,                                       !- Cooling Design Air Flow Rate {m3/s}
  ,                                       !- Cooling Minimum Air Flow per Zone Floor Area {m3/s-m2}
  ,                                       !- Cooling Minimum Air Flow {m3/s}
  ,                                       !- Cooling Minimum Air Flow Fraction
  DesignDay,                              !- Heating Design Air Flow Method
  ,                                       !- Heating Design Air Flow Rate {m3/s}
  ,                                       !- Heating Maximum Air Flow per Zone Floor Area {m3/s-m2}
  ,                                       !- Heating Maximum Air Flow {m3/s}
  ,                                       !- Heating Maximum Air Flow Fraction
  No,                                     !- Account for Dedicated Outdoor Air System
  NeutralSupplyAir,                       !- Dedicated Outdoor Air System Control Strategy
  autosize,                               !- Dedicated Outdoor Air Low Setpoint Temperature for Design {C}
  autosize;                               !- Dedicated Outdoor Air High Setpoint Temperature for Design {C}

OS:ZoneHVAC:EquipmentList,
  {dd6e5c03-62d5-42cb-99e8-00d95f0dfb07}, !- Handle
  Zone Office WholeBuilding - Sm Office  - Story Ground Zone HVAC Equipment List, !- Name
  {4d6c0046-86dd-4b0e-9f09-a8452ea38edb}, !- Thermal Zone
  ,                                       !- Load Distribution Scheme
  {596be8fb-6007-46f2-8144-b48b1118e5b7}, !- Zone Equipment 1
  1,                                      !- Zone Equipment Cooling Sequence 1
  1,                                      !- Zone Equipment Heating or No-Load Sequence 1
  ,                                       !- Zone Equipment Sequential Cooling Fraction Schedule Name 1
  ;                                       !- Zone Equipment Sequential Heating Fraction Schedule Name 1

OS:SubSurface,
  {6e91dbed-8fc2-413e-8c0e-5898face59b6}, !- Handle
  Sub Surface 1,                          !- Name
  FixedWindow,                            !- Sub Surface Type
  ,                                       !- Construction Name
  {4e0445b1-6b73-4183-961b-37e085da08d6}, !- Surface Name
  ,                                       !- Outside Boundary Condition Object
  ,                                       !- View Factor to Ground
  ,                                       !- Shading Control Name
  ,                                       !- Frame and Divider Name
  ,                                       !- Multiplier
  ,                                       !- Number of Vertices
  2.66453525910038e-15, 7.84450215949348, 1.22217038707594, !- X,Y,Z Vertex 1 {m}
  2.66453525910038e-15, 7.84450215949348, 0.762, !- X,Y,Z Vertex 2 {m}
  2.66453525910038e-15, 0.025399999999995, 0.762, !- X,Y,Z Vertex 3 {m}
  2.66453525910038e-15, 0.025399999999995, 1.22217038707594; !- X,Y,Z Vertex 4 {m}

OS:SubSurface,
  {7452fad8-bd5c-4209-8b02-be92469584b0}, !- Handle
  Sub Surface 2,                          !- Name
  FixedWindow,                            !- Sub Surface Type
  ,                                       !- Construction Name
  {258b48f6-760e-4c86-8fe7-b4f23e1915cf}, !- Surface Name
  ,                                       !- Outside Boundary Condition Object
  ,                                       !- View Factor to Ground
  ,                                       !- Shading Control Name
  ,                                       !- Frame and Divider Name
  ,                                       !- Multiplier
  ,                                       !- Number of Vertices
  0.0254000000000027, -4.44089209850063e-15, 1.22117597879874, !- X,Y,Z Vertex 1 {m}
  0.0254000000000027, -4.44089209850063e-15, 0.762, !- X,Y,Z Vertex 2 {m}
  11.7794532392402, -4.44089209850063e-15, 0.762, !- X,Y,Z Vertex 3 {m}
  11.7794532392402, -4.44089209850063e-15, 1.22117597879874; !- X,Y,Z Vertex 4 {m}

OS:SubSurface,
  {ed6b54c3-77d7-4002-a9fa-999174ef5d60}, !- Handle
  Sub Surface 3,                          !- Name
  FixedWindow,                            !- Sub Surface Type
  ,                                       !- Construction Name
  {020fe90a-875c-4aa9-a471-70df7ddfaa53}, !- Surface Name
  ,                                       !- Outside Boundary Condition Object
  ,                                       !- View Factor to Ground
  ,                                       !- Shading Control Name
  ,                                       !- Frame and Divider Name
  ,                                       !- Multiplier
  ,                                       !- Number of Vertices
  11.8048532392402, 0.0253999999999956, 1.22217038707594, !- X,Y,Z Vertex 1 {m}
  11.8048532392402, 0.0253999999999956, 0.762, !- X,Y,Z Vertex 2 {m}
  11.8048532392402, 7.84450215949348, 0.762, !- X,Y,Z Vertex 3 {m}
  11.8048532392402, 7.84450215949348, 1.22217038707594; !- X,Y,Z Vertex 4 {m}

OS:SubSurface,
  {2542d46b-4e42-4ba5-b0c9-444b2cb48d8a}, !- Handle
  Sub Surface 4,                          !- Name
  FixedWindow,                            !- Sub Surface Type
  ,                                       !- Construction Name
  {3e81dd07-89f0-4a67-bb8e-403c9d2af56a}, !- Surface Name
  ,                                       !- Outside Boundary Condition Object
  ,                                       !- View Factor to Ground