
OS:Version,
  {bfa78f34-d31e-4f3e-9cce-961959c0bab9}, !- Handle
  2.8.1;                                  !- Version Identifier

OS:Facility,
  {9a497f3d-ac83-4e30-961b-4e1f266bd22f}; !- Handle

OS:Site,
  {9b80db4e-c4e2-4500-ba9c-4214b683809a}, !- Handle
  Denver Centennial  Golden   Nr_CO_USA,  !- Name
  39.74,                                  !- Latitude {deg}
  -105.18,                                !- Longitude {deg}
  -7,                                     !- Time Zone {hr}
  1829,                                   !- Elevation {m}
  City;                                   !- Terrain

OS:SimulationControl,
  {dd1be8d8-f1c1-4ef2-82a3-b84655053fd4}, !- Handle
  ,                                       !- Do Zone Sizing Calculation
  ,                                       !- Do System Sizing Calculation
  ,                                       !- Do Plant Sizing Calculation
  Yes,                                    !- Run Simulation for Sizing Periods
  No;                                     !- Run Simulation for Weather File Run Periods

OS:Sizing:Parameters,
  {2c36b793-be8d-4bd5-b018-85e54defea56}, !- Handle
  1.25,                                   !- Heating Sizing Factor
  1.15;                                   !- Cooling Sizing Factor

OS:Timestep,
  {c9f82757-fb09-4a00-976f-7a8f46b45a6b}, !- Handle
  1;                                      !- Number of Timesteps per Hour

OS:ShadowCalculation,
  {2b068a46-9ae7-4efc-af2a-70a3bec33315}, !- Handle
  20,                                     !- Calculation Frequency
  15000;                                  !- Maximum Figures in Shadow Overlap Calculations

OS:HeatBalanceAlgorithm,
  {32fb7f53-96a0-4319-928a-b0b453937b63}, !- Handle
  ConductionTransferFunction,             !- Algorithm
  200;                                    !- Surface Temperature Upper Limit {C}

OS:RunPeriod,
  {42fd549e-ac27-42e6-b10b-7624195bb52f}, !- Handle
  Run Period 1,                           !- Name
  6,                                      !- Begin Month
  1,                                      !- Begin Day of Month
  6,                                      !- End Month
  1,                                      !- End Day of Month
  ,                                       !- Use Weather File Holidays and Special Days
  ,                                       !- Use Weather File Daylight Saving Period
  ,                                       !- Apply Weekend Holiday Rule
  ,                                       !- Use Weather File Rain Indicators
  ,                                       !- Use Weather File Snow Indicators
  ;                                       !- Number of Times Runperiod to be Repeated

OS:LifeCycleCost:Parameters,
  {b15cd679-590e-4234-82f8-0301a7d4225d}, !- Handle
  ,                                       !- Analysis Type
  ,                                       !- Discounting Convention
  ,                                       !- Inflation Approach
  ,                                       !- Real Discount Rate
  ,                                       !- Nominal Discount Rate
  ,                                       !- Inflation
  ,                                       !- Base Date Month
  ,                                       !- Base Date Year
  ,                                       !- Service Date Month
  ,                                       !- Service Date Year
  ;                                       !- Length of Study Period in Years

OS:WeatherFile,
  {7c8d5004-8cc4-4f77-ac6e-0ff5dfbbdf24}, !- Handle
  Denver Centennial  Golden   Nr,         !- City
  CO,                                     !- State Province Region
  USA,                                    !- Country
  TMY3,                                   !- Data Source
  724666,                                 !- WMO Number
  39.74,                                  !- Latitude {deg}
  -105.18,                                !- Longitude {deg}
  -7,                                     !- Time Zone {hr}
  1829,                                   !- Elevation {m}
  file:///C:/gitrepos/urbanopt-scenario-gem/spec/test/example_scenario/1/003_create_typical_building_from_model/SR1/in.epw, !- Url
  BDF687C1;                               !- Checksum

OS:Site:WaterMainsTemperature,
  {f33066e4-ce0e-4a94-94d1-6a8aecde8374}, !- Handle
  Correlation,                            !- Calculation Method
  ,                                       !- Temperature Schedule Name
  9.7,                                    !- Annual Average Outdoor Air Temperature {C}
  22.8;                                   !- Maximum Difference In Monthly Average Outdoor Air Temperatures {deltaC}

OS:SizingPeriod:DesignDay,
  {89e890fb-d530-49f0-8e44-c1c6ad2e0388}, !- Handle
  Denver Centennial  Golden   N Ann Clg .4% Condns DB=>MWB 1, !- Name
  33,                                     !- Maximum Dry-Bulb Temperature {C}
  15.2,                                   !- Daily Dry-Bulb Temperature Range {deltaC}
  15.7,                                   !- Humidity Indicating Conditions at Maximum Dry-Bulb
  81198,                                  !- Barometric Pressure {Pa}
  4.9,                                    !- Wind Speed {m/s}
  0,                                      !- Wind Direction {deg}
  0,                                      !- Sky Clearness
  0,                                      !- Rain Indicator
  0,                                      !- Snow Indicator
  21,                                     !- Day of Month
  7,                                      !- Month
  SummerDesignDay,                        !- Day Type
  0,                                      !- Daylight Saving Time Indicator
  Wetbulb,                                !- Humidity Indicating Type
  ,                                       !- Humidity Indicating Day Schedule Name
  DefaultMultipliers,                     !- Dry-Bulb Temperature Range Modifier Type
  ,                                       !- Dry-Bulb Temperature Range Modifier Schedule Name
  ASHRAETau,                              !- Solar Model Indicator
  ,                                       !- Beam Solar Day Schedule Name
  ,                                       !- Diffuse Solar Day Schedule Name
  0.424,                                  !- ASHRAE Taub {dimensionless}
  2.025;                                  !- ASHRAE Taud {dimensionless}

OS:SizingPeriod:DesignDay,
  {d2c3420a-00ae-4612-9ef6-ce4a2166f5e7}, !- Handle
  Denver Centennial  Golden   N Ann Clg .4% Condns WB=>MDB 1, !- Name
  27.3,                                   !- Maximum Dry-Bulb Temperature {C}
  15.2,                                   !- Daily Dry-Bulb Temperature Range {deltaC}
  18.4,                                   !- Humidity Indicating Conditions at Maximum Dry-Bulb
  81198,                                  !- Barometric Pressure {Pa}
  4.9,                                    !- Wind Speed {m/s}
  0,                                      !- Wind Direction {deg}
  0,                                      !- Sky Clearness
  0,                                      !- Rain Indicator
  0,                                      !- Snow Indicator
  21,                                     !- Day of Month
  7,                                      !- Month
  SummerDesignDay,                        !- Day Type
  0,                                      !- Daylight Saving Time Indicator
  Wetbulb,                                !- Humidity Indicating Type
  ,                                       !- Humidity Indicating Day Schedule Name
  DefaultMultipliers,                     !- Dry-Bulb Temperature Range Modifier Type
  ,                                       !- Dry-Bulb Temperature Range Modifier Schedule Name
  ASHRAETau,                              !- Solar Model Indicator
  ,                                       !- Beam Solar Day Schedule Name
  ,                                       !- Diffuse Solar Day Schedule Name
  0.424,                                  !- ASHRAE Taub {dimensionless}
  2.025;                                  !- ASHRAE Taud {dimensionless}

OS:SizingPeriod:DesignDay,
  {e6650e52-81fb-4116-a062-e23019cd83c1}, !- Handle
  Denver Centennial  Golden   N Ann Htg 99.6% Condns DB 1, !- Name
  -18.8,                                  !- Maximum Dry-Bulb Temperature {C}
  0,                                      !- Daily Dry-Bulb Temperature Range {deltaC}
  -18.8,                                  !- Humidity Indicating Conditions at Maximum Dry-Bulb
  81198,                                  !- Barometric Pressure {Pa}
  3,                                      !- Wind Speed {m/s}
  340,                                    !- Wind Direction {deg}
  0,                                      !- Sky Clearness
  0,                                      !- Rain Indicator
  0,                                      !- Snow Indicator
  21,                                     !- Day of Month
  12,                                     !- Month
  WinterDesignDay,                        !- Day Type
  0,                                      !- Daylight Saving Time Indicator
  Wetbulb,                                !- Humidity Indicating Type
  ,                                       !- Humidity Indicating Day Schedule Name
  DefaultMultipliers,                     !- Dry-Bulb Temperature Range Modifier Type
  ,                                       !- Dry-Bulb Temperature Range Modifier Schedule Name
  ASHRAEClearSky;                         !- Solar Model Indicator

OS:ClimateZones,
  {46814116-26c3-4c70-9350-c67f584170fc}, !- Handle
  ,                                       !- Active Institution
  ,                                       !- Active Year
  ASHRAE,                                 !- Climate Zone Institution Name 1
  ANSI/ASHRAE Standard 169,               !- Climate Zone Document Name 1
  2006,                                   !- Climate Zone Document Year 1
  5B;                                     !- Climate Zone Value 1

OS:YearDescription,
  {e8a61d50-e48b-4a66-8e7b-e4a1ace20401}, !- Handle
  2012,                                   !- Calendar Year
  ,                                       !- Day of Week for Start Day
  ;                                       !- Is Leap Year

OS:Building,
  {0042e4bd-759c-479e-aced-abee3e1609b3}, !- Handle
  90.1-2004|SmallOffice,                  !- Name
  ,                                       !- Building Sector Type
  ,                                       !- North Axis {deg}
  ,                                       !- Nominal Floor to Floor Height {m}
  ,                                       !- Space Type Name
  {31d57630-ef25-49a1-b129-e5dc5eb70d17}, !- Default Construction Set Name
  ,                                       !- Default Schedule Set Name
  ,                                       !- Standards Number of Stories
  ,                                       !- Standards Number of Above Ground Stories
  ,                                       !- Standards Template
  Office;                                 !- Standards Building Type

OS:SpaceType,
  {017376e7-30f7-438a-af91-1fa9b5516bd8}, !- Handle
  Office WholeBuilding - Sm Office - 90.1-2004, !- Name
  ,                                       !- Default Construction Set Name
  {bfd95524-f4a1-45ec-9a41-b6479d67cd7e}, !- Default Schedule Set Name
  ,                                       !- Group Rendering Name
  {7bfb65c4-07c4-4451-b2ba-b5e0b0d6a8d5}, !- Design Specification Outdoor Air Object Name
  ,                                       !- Standards Template
  Office,                                 !- Standards Building Type
  WholeBuilding - Sm Office;              !- Standards Space Type

OS:BuildingStory,
  {46ef120a-c19f-47c3-97c8-10a40370d966}, !- Handle
  Story Ground,                           !- Name
  0,                                      !- Nominal Z Coordinate {m}
  3.048,                                  !- Nominal Floor to Floor Height {m}
  ,                                       !- Default Construction Set Name
  ,                                       !- Default Schedule Set Name
  ;                                       !- Group Rendering Name

OS:Space,
  {d62c675a-faf0-4ab6-b7ec-2f0afd40b188}, !- Handle
  Office WholeBuilding - Sm Office  - Story Ground, !- Name
  {017376e7-30f7-438a-af91-1fa9b5516bd8}, !- Space Type Name
  ,                                       !- Default Construction Set Name
  ,                                       !- Default Schedule Set Name
  -0,                                     !- Direction of Relative North {deg}
  -5.9024266196201,                       !- X Origin {m}
  -3.93495107974674,                      !- Y Origin {m}
  0,                                      !- Z Origin {m}
  {46ef120a-c19f-47c3-97c8-10a40370d966}, !- Building Story Name
  {8635dd65-1d80-4220-9791-813afd100d58}; !- Thermal Zone Name

OS:Surface,
  {9d6df935-b93d-408d-aeaf-8061a868f384}, !- Handle
  Surface 1,                              !- Name
  Floor,                                  !- Surface Type
  ,                                       !- Construction Name
  {d62c675a-faf0-4ab6-b7ec-2f0afd40b188}, !- Space Name
  Ground,                                 !- Outside Boundary Condition
  ,                                       !- Outside Boundary Condition Object
  NoSun,                                  !- Sun Exposure
  NoWind,                                 !- Wind Exposure
  ,                                       !- View Factor to Ground
  ,                                       !- Number of Vertices
  2.66453525910038e-015, -4.44089209850063e-015, 0, !- X,Y,Z Vertex 1 {m}
  2.66453525910038e-015, 7.86990215949348, 0, !- X,Y,Z Vertex 2 {m}
  11.8048532392402, 7.86990215949348, 0,  !- X,Y,Z Vertex 3 {m}
  11.8048532392402, -4.44089209850063e-015, 0; !- X,Y,Z Vertex 4 {m}

OS:Surface,
  {e6cc356b-e3ab-46a4-9881-2fc5ef9c83c9}, !- Handle
  Surface 2,                              !- Name
  Wall,                                   !- Surface Type
  ,                                       !- Construction Name
  {d62c675a-faf0-4ab6-b7ec-2f0afd40b188}, !- Space Name
  Outdoors,                               !- Outside Boundary Condition
  ,                                       !- Outside Boundary Condition Object
  SunExposed,                             !- Sun Exposure
  WindExposed,                            !- Wind Exposure
  ,                                       !- View Factor to Ground
  ,                                       !- Number of Vertices
  2.66453525910038e-015, 7.86990215949348, 3.048, !- X,Y,Z Vertex 1 {m}
  2.66453525910038e-015, 7.86990215949348, 0, !- X,Y,Z Vertex 2 {m}
  2.66453525910038e-015, -4.44089209850063e-015, 0, !- X,Y,Z Vertex 3 {m}
  2.66453525910038e-015, -4.44089209850063e-015, 3.048; !- X,Y,Z Vertex 4 {m}

OS:Surface,
  {9070ee66-b4c5-42ea-8f67-4dcebdc450c3}, !- Handle
  Surface 3,                              !- Name
  Wall,                                   !- Surface Type
  ,                                       !- Construction Name
  {d62c675a-faf0-4ab6-b7ec-2f0afd40b188}, !- Space Name
  Outdoors,                               !- Outside Boundary Condition
  ,                                       !- Outside Boundary Condition Object
  SunExposed,                             !- Sun Exposure
  WindExposed,                            !- Wind Exposure
  ,                                       !- View Factor to Ground
  ,                                       !- Number of Vertices
  11.8048532392402, 7.86990215949348, 3.048, !- X,Y,Z Vertex 1 {m}
  11.8048532392402, 7.86990215949348, 0,  !- X,Y,Z Vertex 2 {m}
  2.66453525910038e-015, 7.86990215949348, 0, !- X,Y,Z Vertex 3 {m}
  2.66453525910038e-015, 7.86990215949348, 3.048; !- X,Y,Z Vertex 4 {m}

OS:Surface,
  {3ac6bda7-569e-4f87-9c31-7f57a218bc17}, !- Handle
  Surface 4,                              !- Name
  Wall,                                   !- Surface Type
  ,                                       !- Construction Name
  {d62c675a-faf0-4ab6-b7ec-2f0afd40b188}, !- Space Name
  Outdoors,                               !- Outside Boundary Condition
  ,                                       !- Outside Boundary Condition Object
  SunExposed,                             !- Sun Exposure
  WindExposed,                            !- Wind Exposure
  ,                                       !- View Factor to Ground
  ,                                       !- Number of Vertices
  11.8048532392402, -4.44089209850063e-015, 3.048, !- X,Y,Z Vertex 1 {m}
  11.8048532392402, -4.44089209850063e-015, 0, !- X,Y,Z Vertex 2 {m}
  11.8048532392402, 7.86990215949348, 0,  !- X,Y,Z Vertex 3 {m}
  11.8048532392402, 7.86990215949348, 3.048; !- X,Y,Z Vertex 4 {m}

OS:Surface,
  {0bef9063-a947-49c1-a497-389d9f07295e}, !- Handle
  Surface 5,                              !- Name
  Wall,                                   !- Surface Type
  ,                                       !- Construction Name
  {d62c675a-faf0-4ab6-b7ec-2f0afd40b188}, !- Space Name
  Outdoors,                               !- Outside Boundary Condition
  ,                                       !- Outside Boundary Condition Object
  SunExposed,                             !- Sun Exposure
  WindExposed,                            !- Wind Exposure
  ,                                       !- View Factor to Ground
  ,                                       !- Number of Vertices
  2.66453525910038e-015, -4.44089209850063e-015, 3.048, !- X,Y,Z Vertex 1 {m}
  2.66453525910038e-015, -4.44089209850063e-015, 0, !- X,Y,Z Vertex 2 {m}
  11.8048532392402, -4.44089209850063e-015, 0, !- X,Y,Z Vertex 3 {m}
  11.8048532392402, -4.44089209850063e-015, 3.048; !- X,Y,Z Vertex 4 {m}

OS:Surface,
  {30857aa8-8cd9-4285-a044-c6fe95df683c}, !- Handle
  Surface 6,                              !- Name
  RoofCeiling,                            !- Surface Type
  ,                                       !- Construction Name
  {d62c675a-faf0-4ab6-b7ec-2f0afd40b188}, !- Space Name
  Outdoors,                               !- Outside Boundary Condition
  ,                                       !- Outside Boundary Condition Object
  SunExposed,                             !- Sun Exposure
  WindExposed,                            !- Wind Exposure
  ,                                       !- View Factor to Ground
  ,                                       !- Number of Vertices
  11.8048532392402, -4.44089209850063e-015, 3.048, !- X,Y,Z Vertex 1 {m}
  11.8048532392402, 7.86990215949348, 3.048, !- X,Y,Z Vertex 2 {m}
  2.66453525910038e-015, 7.86990215949348, 3.048, !- X,Y,Z Vertex 3 {m}
  2.66453525910038e-015, -4.44089209850063e-015, 3.048; !- X,Y,Z Vertex 4 {m}

OS:ThermalZone,
  {8635dd65-1d80-4220-9791-813afd100d58}, !- Handle
  Zone Office WholeBuilding - Sm Office  - Story Ground, !- Name
  1,                                      !- Multiplier
  ,                                       !- Ceiling Height {m}
  ,                                       !- Volume {m3}
  ,                                       !- Floor Area {m2}
  ,                                       !- Zone Inside Convection Algorithm
  ,                                       !- Zone Outside Convection Algorithm
  ,                                       !- Zone Conditioning Equipment List Name
  {0ff2f5d4-0e44-4e83-a815-c5222bb28121}, !- Zone Air Inlet Port List
  {67fd5933-2fd1-42e7-8b0b-a5e7d805559d}, !- Zone Air Exhaust Port List
  {7e4ea997-a594-4385-aed2-81de9c214fb8}, !- Zone Air Node Name
  {6debdf48-8b64-4524-8699-c13f9b9d1671}, !- Zone Return Air Port List
  ,                                       !- Primary Daylighting Control Name
  ,                                       !- Fraction of Zone Controlled by Primary Daylighting Control
  ,                                       !- Secondary Daylighting Control Name
  ,                                       !- Fraction of Zone Controlled by Secondary Daylighting Control
  ,                                       !- Illuminance Map Name
  ,                                       !- Group Rendering Name
  {46997b02-36fe-45ac-8a85-39e7d9a1178d}, !- Thermostat Name
  No;                                     !- Use Ideal Air Loads

OS:Node,
  {dd99a6a1-43a0-468e-baa5-f02dc0d94255}, !- Handle
  Zone Office WholeBuilding - Sm Office  - Story Ground Zone Air Node, !- Name
  {7e4ea997-a594-4385-aed2-81de9c214fb8}, !- Inlet Port
  ;                                       !- Outlet Port

OS:Connection,
  {7e4ea997-a594-4385-aed2-81de9c214fb8}, !- Handle
  {f23eaf0e-b15d-4f30-930b-5e174cec3a3e}, !- Name
  {8635dd65-1d80-4220-9791-813afd100d58}, !- Source Object
  11,                                     !- Outlet Port
  {dd99a6a1-43a0-468e-baa5-f02dc0d94255}, !- Target Object
  2;                                      !- Inlet Port

OS:PortList,
  {0ff2f5d4-0e44-4e83-a815-c5222bb28121}, !- Handle
  {5c785306-ae74-46e9-ad9c-aafbee3030de}, !- Name
  {8635dd65-1d80-4220-9791-813afd100d58}, !- HVAC Component
  {74679ed6-61ff-4ce0-b5ac-84e7f3b2a177}; !- Port 1

OS:PortList,
  {67fd5933-2fd1-42e7-8b0b-a5e7d805559d}, !- Handle
  {11789f1e-6cd7-466e-b239-dae4bbb9c0ea}, !- Name
  {8635dd65-1d80-4220-9791-813afd100d58}; !- HVAC Component

OS:PortList,
  {6debdf48-8b64-4524-8699-c13f9b9d1671}, !- Handle
  {868e4360-4d5b-42a9-ad67-f841c99d1d97}, !- Name
  {8635dd65-1d80-4220-9791-813afd100d58}, !- HVAC Component
  {554285cc-745a-446b-b394-dff79dce41cd}; !- Port 1

OS:Sizing:Zone,
  {54755e8d-c895-476b-bc6d-2f1ad3672f50}, !- Handle
  {8635dd65-1d80-4220-9791-813afd100d58}, !- Zone or ZoneList Name
  SupplyAirTemperature,                   !- Zone Cooling Design Supply Air Temperature Input Method
  12.7777777777778,                       !- Zone Cooling Design Supply Air Temperature {C}
  11.11,                                  !- Zone Cooling Design Supply Air Temperature Difference {deltaC}
  SupplyAirTemperature,                   !- Zone Heating Design Supply Air Temperature Input Method
  50.0000000000001,                       !- Zone Heating Design Supply Air Temperature {C}
  11.11,                                  !- Zone Heating Design Supply Air Temperature Difference {deltaC}
  0.0085,                                 !- Zone Cooling Design Supply Air Humidity Ratio {kg-H2O/kg-air}
  0.008,                                  !- Zone Heating Design Supply Air Humidity Ratio {kg-H2O/kg-air}
  ,                                       !- Zone Heating Sizing Factor
  ,                                       !- Zone Cooling Sizing Factor
  DesignDay,                              !- Cooling Design Air Flow Method
  ,                                       !- Cooling Design Air Flow Rate {m3/s}
  ,                                       !- Cooling Minimum Air Flow per Zone Floor Area {m3/s-m2}
  ,                                       !- Cooling Minimum Air Flow {m3/s}
  ,                                       !- Cooling Minimum Air Flow Fraction
  DesignDay,                              !- Heating Design Air Flow Method
  ,                                       !- Heating Design Air Flow Rate {m3/s}
  ,                                       !- Heating Maximum Air Flow per Zone Floor Area {m3/s-m2}
  ,                                       !- Heating Maximum Air Flow {m3/s}
  ,                                       !- Heating Maximum Air Flow Fraction
  ,                                       !- Design Zone Air Distribution Effectiveness in Cooling Mode
  ,                                       !- Design Zone Air Distribution Effectiveness in Heating Mode
  No,                                     !- Account for Dedicated Outdoor Air System
  NeutralSupplyAir,                       !- Dedicated Outdoor Air System Control Strategy
  autosize,                               !- Dedicated Outdoor Air Low Setpoint Temperature for Design {C}
  autosize;                               !- Dedicated Outdoor Air High Setpoint Temperature for Design {C}

OS:ZoneHVAC:EquipmentList,
  {4af8dfdf-7761-43ce-9d0c-f54195be5f01}, !- Handle
  Zone Office WholeBuilding - Sm Office  - Story Ground Zone HVAC Equipment List, !- Name
  {8635dd65-1d80-4220-9791-813afd100d58}, !- Thermal Zone
  ,                                       !- Load Distribution Scheme
  {63069938-b10b-495f-a67c-0dab1c7a7a4f}, !- Zone Equipment 1
  1,                                      !- Zone Equipment Cooling Sequence 1
  1,                                      !- Zone Equipment Heating or No-Load Sequence 1
  ,                                       !- Zone Equipment Sequential Cooling Fraction 1
  ;                                       !- Zone Equipment Sequential Heating Fraction 1

OS:SubSurface,
  {fd267997-63d0-4c8e-8676-8c498e622c22}, !- Handle
  Sub Surface 1,                          !- Name
  FixedWindow,                            !- Sub Surface Type
  ,                                       !- Construction Name
  {0bef9063-a947-49c1-a497-389d9f07295e}, !- Surface Name
  ,                                       !- Outside Boundary Condition Object
  ,                                       !- View Factor to Ground
  ,                                       !- Shading Control Name
  ,                                       !- Frame and Divider Name
  ,                                       !- Multiplier
  ,                                       !- Number of Vertices
  0.0254000000000027, -4.44089209850063e-015, 1.22117597879874, !- X,Y,Z Vertex 1 {m}
  0.0254000000000027, -4.44089209850063e-015, 0.762, !- X,Y,Z Vertex 2 {m}
  11.7794532392402, -4.44089209850063e-015, 0.762, !- X,Y,Z Vertex 3 {m}
  11.7794532392402, -4.44089209850063e-015, 1.22117597879874; !- X,Y,Z Vertex 4 {m}

OS:SubSurface,
  {ea88dd2c-7803-409c-9cac-b246c11b9d09}, !- Handle
  Sub Surface 2,                          !- Name
  FixedWindow,                            !- Sub Surface Type
  ,                                       !- Construction Name
  {3ac6bda7-569e-4f87-9c31-7f57a218bc17}, !- Surface Name
  ,                                       !- Outside Boundary Condition Object
  ,                                       !- View Factor to Ground
  ,                                       !- Shading Control Name
  ,                                       !- Frame and Divider Name
  ,                                       !- Multiplier
  ,                                       !- Number of Vertices
  11.8048532392402, 0.0253999999999956, 1.22217038707594, !- X,Y,Z Vertex 1 {m}
  11.8048532392402, 0.0253999999999956, 0.762, !- X,Y,Z Vertex 2 {m}
  11.8048532392402, 7.84450215949348, 0.762, !- X,Y,Z Vertex 3 {m}
  11.8048532392402, 7.84450215949348, 1.22217038707594; !- X,Y,Z Vertex 4 {m}

OS:SubSurface,
  {e9077183-7648-49f7-a018-247453c1d186}, !- Handle
  Sub Surface 3,                          !- Name
  FixedWindow,                            !- Sub Surface Type
  ,                                       !- Construction Name
  {e6cc356b-e3ab-46a4-9881-2fc5ef9c83c9}, !- Surface Name
  ,                                       !- Outside Boundary Condition Object
  ,                                       !- View Factor to Ground
  ,                                       !- Shading Control Name
  ,                                       !- Frame and Divider Name
  ,                                       !- Multiplier
  ,                                       !- Number of Vertices
  2.66453525910038e-015, 7.84450215949348, 1.22217038707594, !- X,Y,Z Vertex 1 {m}
  2.66453525910038e-015, 7.84450215949348, 0.762, !- X,Y,Z Vertex 2 {m}
  2.66453525910038e-015, 0.025399999999995, 0.762, !- X,Y,Z Vertex 3 {m}
  2.66453525910038e-015, 0.025399999999995, 1.22217038707594; !- X,Y,Z Vertex 4 {m}

OS:SubSurface,
  {0c79256a-5206-4d22-a2fe-b29903032936}, !- Handle
  Sub Surface 4,                          !- Name
  FixedWindow,                            !- Sub Surface Type
  ,                                       !- Construction Name
  {9070ee66-b4c5-42ea-8f67-4dcebdc450c3}, !- Surface Name
  ,                                       !- Outside Boundary Condition Object
  ,                                       !- View Factor to Ground
  ,                                       !- Shading Control Name
  ,                                       !- Frame and Divider Name
  ,                                       !- Multiplier
  ,                                       !- Number of Vertices
  11.7794532392402, 7.86990215949348, 1.22117597879874, !- X,Y,Z Vertex 1 {m}
  11.7794532392402, 7.86990215949348, 0.762, !- X,Y,Z Vertex 2 {m}
  0.0254000000000048, 7.86990215949348, 0.762, !- X,Y,Z Vertex 3 {m}
  0.0254000000000048, 7.86990215949348, 1.22117597879874; !- X,Y,Z Vertex 4 {m}

OS:RunPeriodControl:DaylightSavingTime,
  {052097bf-0a42-442f-9460-f60e2b9c5e7e}, !- Handle
  2nd Sunday in March,                    !- Start Date
  1st Sunday in November;                 !- End Date

OS:People:Definition,
  {22ab4096-b879-4a1b-8a86-80d728b5aa85}, !- Handle
  Office WholeBuilding - Sm Office People Definition, !- Name
  People/Area,                            !- Number of People Calculation Method
  ,                                       !- Number of People {people}
  0.0602778983335744,                     !- People per Space Floor Area {person/m2}
  ,                                       !- Space Floor Area per Person {m2/person}