
OS:Version,
  {f6ae5f17-bcea-4119-82ce-1945ac235188}, !- Handle
  3.0.1;                                  !- Version Identifier

OS:Facility,
  {d1129238-5cf7-471b-ab27-2307a57d5315}; !- Handle

OS:Site,
  {a8eb918c-a980-4cfd-a51c-560dbb106bff}, !- Handle
  Denver Centennial  Golden   Nr_CO_USA,  !- Name
  39.74,                                  !- Latitude {deg}
  -105.18,                                !- Longitude {deg}
  -7,                                     !- Time Zone {hr}
  1829,                                   !- Elevation {m}
  City;                                   !- Terrain

OS:SimulationControl,
  {5233fe85-6426-4c19-be4a-e26b11d67fd2}, !- Handle
  ,                                       !- Do Zone Sizing Calculation
  ,                                       !- Do System Sizing Calculation
  ,                                       !- Do Plant Sizing Calculation
  No,                                     !- Run Simulation for Sizing Periods
  Yes,                                    !- Run Simulation for Weather File Run Periods
  ,                                       !- Loads Convergence Tolerance Value {W}
  ,                                       !- Temperature Convergence Tolerance Value {deltaC}
  ,                                       !- Solar Distribution
  ,                                       !- Maximum Number of Warmup Days
  ,                                       !- Minimum Number of Warmup Days
  Yes,                                    !- Do HVAC Sizing Simulation for Sizing Periods
  1;                                      !- Maximum Number of HVAC Sizing Simulation Passes

OS:Sizing:Parameters,
  {454b29c4-4ea3-4997-a1be-c1927c397471}, !- Handle
  1.25,                                   !- Heating Sizing Factor
  1.15;                                   !- Cooling Sizing Factor

OS:Timestep,
  {f13cc8a1-639d-47e2-a0e9-94e53c7e82c9}, !- Handle
  1;                                      !- Number of Timesteps per Hour

OS:ShadowCalculation,
  {7281f8a8-065f-4700-b9a6-c5d3ccea50bd}, !- Handle
  PolygonClipping,                        !- Shading Calculation Method
  ,                                       !- Shading Calculation Update Frequency Method
  20,                                     !- Shading Calculation Update Frequency
  15000,                                  !- Maximum Figures in Shadow Overlap Calculations
  ,                                       !- Polygon Clipping Algorithm
  512,                                    !- Pixel Counting Resolution
  ,                                       !- Sky Diffuse Modeling Algorithm
  No,                                     !- Output External Shading Calculation Results
  No,                                     !- Disable Self-Shading Within Shading Zone Groups
  No;                                     !- Disable Self-Shading From Shading Zone Groups to Other Zones

OS:HeatBalanceAlgorithm,
  {0c0671ed-9cf8-4d2a-aff8-f5f398efcd96}, !- Handle
  ConductionTransferFunction,             !- Algorithm
  200;                                    !- Surface Temperature Upper Limit {C}

OS:RunPeriod,
  {c7dad3ce-2498-4ef2-89f2-2f545a776ccd}, !- Handle
  Run Period 1,                           !- Name
  6,                                      !- Begin Month
  1,                                      !- Begin Day of Month
  6,                                      !- End Month
  1,                                      !- End Day of Month
  ,                                       !- Use Weather File Holidays and Special Days
  ,                                       !- Use Weather File Daylight Saving Period
  ,                                       !- Apply Weekend Holiday Rule
  ,                                       !- Use Weather File Rain Indicators
  ,                                       !- Use Weather File Snow Indicators
  ;                                       !- Number of Times Runperiod to be Repeated

OS:LifeCycleCost:Parameters,
  {0cfae7b4-5057-42ed-8a39-c032bbd0f4e5}, !- Handle
  ,                                       !- Analysis Type
  ,                                       !- Discounting Convention
  ,                                       !- Inflation Approach
  ,                                       !- Real Discount Rate
  ,                                       !- Nominal Discount Rate
  ,                                       !- Inflation
  ,                                       !- Base Date Month
  ,                                       !- Base Date Year
  ,                                       !- Service Date Month
  ,                                       !- Service Date Year
  ;                                       !- Length of Study Period in Years

OS:WeatherFile,
  {63489f01-3670-465e-b408-bcf4eb5fac33}, !- Handle
  Denver Centennial  Golden   Nr,         !- City
  CO,                                     !- State Province Region
  USA,                                    !- Country
  TMY3,                                   !- Data Source
  724666,                                 !- WMO Number
  39.74,                                  !- Latitude {deg}
  -105.18,                                !- Longitude {deg}
  -7,                                     !- Time Zone {hr}
  1829,                                   !- Elevation {m}
  C:/urbanopt-scenario-gem/spec/test/weather/urbanopt_scenario_tests.epw, !- Url
  ;                                       !- Checksum

OS:Site:WaterMainsTemperature,
  {544d101c-6e15-43a7-9207-ab09fe706f62}, !- Handle
  Correlation,                            !- Calculation Method
  ,                                       !- Temperature Schedule Name
  9.7,                                    !- Annual Average Outdoor Air Temperature {C}
  22.8;                                   !- Maximum Difference In Monthly Average Outdoor Air Temperatures {deltaC}

OS:SizingPeriod:DesignDay,
  {23f05800-5288-4182-8834-358a930b3d3a}, !- Handle
  Denver Centennial  Golden   N Ann Clg .4% Condns DB=>MWB 1, !- Name
  33,                                     !- Maximum Dry-Bulb Temperature {C}
  15.2,                                   !- Daily Dry-Bulb Temperature Range {deltaC}
  15.7,                                   !- Humidity Indicating Conditions at Maximum Dry-Bulb
  81198,                                  !- Barometric Pressure {Pa}
  4.9,                                    !- Wind Speed {m/s}
  0,                                      !- Wind Direction {deg}
  0,                                      !- Sky Clearness
  0,                                      !- Rain Indicator
  0,                                      !- Snow Indicator
  21,                                     !- Day of Month
  7,                                      !- Month
  SummerDesignDay,                        !- Day Type
  0,                                      !- Daylight Saving Time Indicator
  Wetbulb,                                !- Humidity Indicating Type
  ,                                       !- Humidity Indicating Day Schedule Name
  DefaultMultipliers,                     !- Dry-Bulb Temperature Range Modifier Type
  ,                                       !- Dry-Bulb Temperature Range Modifier Schedule Name
  ASHRAETau,                              !- Solar Model Indicator
  ,                                       !- Beam Solar Day Schedule Name
  ,                                       !- Diffuse Solar Day Schedule Name
  0.424,                                  !- ASHRAE Taub {dimensionless}
  2.025;                                  !- ASHRAE Taud {dimensionless}

OS:SizingPeriod:DesignDay,
  {ddeb222c-6ed8-42bf-bc98-82e2e19578aa}, !- Handle
  Denver Centennial  Golden   N Ann Clg .4% Condns WB=>MDB 1, !- Name
  27.3,                                   !- Maximum Dry-Bulb Temperature {C}
  15.2,                                   !- Daily Dry-Bulb Temperature Range {deltaC}
  18.4,                                   !- Humidity Indicating Conditions at Maximum Dry-Bulb
  81198,                                  !- Barometric Pressure {Pa}
  4.9,                                    !- Wind Speed {m/s}
  0,                                      !- Wind Direction {deg}
  0,                                      !- Sky Clearness
  0,                                      !- Rain Indicator
  0,                                      !- Snow Indicator
  21,                                     !- Day of Month
  7,                                      !- Month
  SummerDesignDay,                        !- Day Type
  0,                                      !- Daylight Saving Time Indicator
  Wetbulb,                                !- Humidity Indicating Type
  ,                                       !- Humidity Indicating Day Schedule Name
  DefaultMultipliers,                     !- Dry-Bulb Temperature Range Modifier Type
  ,                                       !- Dry-Bulb Temperature Range Modifier Schedule Name
  ASHRAETau,                              !- Solar Model Indicator
  ,                                       !- Beam Solar Day Schedule Name
  ,                                       !- Diffuse Solar Day Schedule Name
  0.424,                                  !- ASHRAE Taub {dimensionless}
  2.025;                                  !- ASHRAE Taud {dimensionless}

OS:SizingPeriod:DesignDay,
  {a2bb1a75-1615-45e5-89fc-735cfef10437}, !- Handle
  Denver Centennial  Golden   N Ann Htg 99.6% Condns DB 1, !- Name
  -18.8,                                  !- Maximum Dry-Bulb Temperature {C}
  0,                                      !- Daily Dry-Bulb Temperature Range {deltaC}
  -18.8,                                  !- Humidity Indicating Conditions at Maximum Dry-Bulb
  81198,                                  !- Barometric Pressure {Pa}
  3,                                      !- Wind Speed {m/s}
  340,                                    !- Wind Direction {deg}
  0,                                      !- Sky Clearness
  0,                                      !- Rain Indicator
  0,                                      !- Snow Indicator
  21,                                     !- Day of Month
  12,                                     !- Month
  WinterDesignDay,                        !- Day Type
  0,                                      !- Daylight Saving Time Indicator
  Wetbulb,                                !- Humidity Indicating Type
  ,                                       !- Humidity Indicating Day Schedule Name
  DefaultMultipliers,                     !- Dry-Bulb Temperature Range Modifier Type
  ,                                       !- Dry-Bulb Temperature Range Modifier Schedule Name
  ASHRAEClearSky;                         !- Solar Model Indicator

OS:ClimateZones,
  {a88d8a93-07d0-4fac-8d96-af0f105a5ceb}, !- Handle
  ASHRAE,                                 !- Climate Zone Institution Name 1
  ANSI/ASHRAE Standard 169,               !- Climate Zone Document Name 1
  2006,                                   !- Climate Zone Document Year 1
  5B;                                     !- Climate Zone Value 1

OS:YearDescription,
  {58856ded-ce5f-42d2-976f-bd2667872a07}, !- Handle
  2012,                                   !- Calendar Year
  ,                                       !- Day of Week for Start Day
  ;                                       !- Is Leap Year

OS:Building,
  {99a98386-49ca-4cac-b2fe-78a297d9e9c9}, !- Handle
  90.1-2004|SmallOffice,                  !- Name
  ,                                       !- Building Sector Type
  ,                                       !- North Axis {deg}
  ,                                       !- Nominal Floor to Floor Height {m}
  ,                                       !- Space Type Name
  {bd4f4f5c-4129-4373-8c85-9c213624a85b}, !- Default Construction Set Name
  ,                                       !- Default Schedule Set Name
  ,                                       !- Standards Number of Stories
  ,                                       !- Standards Number of Above Ground Stories
  ,                                       !- Standards Template
  Office;                                 !- Standards Building Type

OS:SpaceType,
  {4079aaab-76ac-47fa-9352-5aa229b5676e}, !- Handle
  Office WholeBuilding - Sm Office - 90.1-2004, !- Name
  ,                                       !- Default Construction Set Name
  {8895275b-42a4-496d-b2d2-128b47ff6fa3}, !- Default Schedule Set Name
  {5c800e4e-b734-4da1-a156-05cd8eb0fbc2}, !- Group Rendering Name
  {2291294a-0808-4429-b8da-d42902c28b54}, !- Design Specification Outdoor Air Object Name
  ,                                       !- Standards Template
  Office,                                 !- Standards Building Type
  WholeBuilding - Sm Office;              !- Standards Space Type

OS:Rendering:Color,
  {5c800e4e-b734-4da1-a156-05cd8eb0fbc2}, !- Handle
  Office WholeBuilding - Sm Office,       !- Name
  120,                                    !- Rendering Red Value
  230,                                    !- Rendering Green Value
  199;                                    !- Rendering Blue Value

OS:BuildingStory,
  {c8c85fce-2002-4686-9599-8b4340eb01ae}, !- Handle
  Story Ground,                           !- Name
  0,                                      !- Nominal Z Coordinate {m}
  3.048,                                  !- Nominal Floor to Floor Height {m}
  ,                                       !- Default Construction Set Name
  ,                                       !- Default Schedule Set Name
  ;                                       !- Group Rendering Name

OS:Space,
  {f0c0d99f-8c65-46b5-a9d7-90f09559dbb2}, !- Handle
  Office WholeBuilding - Sm Office  - Story Ground, !- Name
  {4079aaab-76ac-47fa-9352-5aa229b5676e}, !- Space Type Name
  ,                                       !- Default Construction Set Name
  ,                                       !- Default Schedule Set Name
  -0,                                     !- Direction of Relative North {deg}
  -8.34729177637873,                      !- X Origin {m}
  -5.56486118425249,                      !- Y Origin {m}
  0,                                      !- Z Origin {m}
  {c8c85fce-2002-4686-9599-8b4340eb01ae}, !- Building Story Name
  {6dc342ab-0555-450b-8971-5ad14babb60c}; !- Thermal Zone Name

OS:Surface,
  {ada8b9a3-dd2f-4c73-9d04-001ac8554add}, !- Handle
  Surface 1,                              !- Name
  Floor,                                  !- Surface Type
  ,                                       !- Construction Name
  {f0c0d99f-8c65-46b5-a9d7-90f09559dbb2}, !- Space Name
  Ground,                                 !- Outside Boundary Condition
  ,                                       !- Outside Boundary Condition Object
  NoSun,                                  !- Sun Exposure
  NoWind,                                 !- Wind Exposure
  ,                                       !- View Factor to Ground
  ,                                       !- Number of Vertices
  1.77635683940025e-15, -2.66453525910038e-15, 0, !- X,Y,Z Vertex 1 {m}
  1.77635683940025e-15, 11.129722368505, 0, !- X,Y,Z Vertex 2 {m}
  16.6945835527575, 11.129722368505, 0,   !- X,Y,Z Vertex 3 {m}
  16.6945835527575, -2.66453525910038e-15, 0; !- X,Y,Z Vertex 4 {m}

OS:Surface,
  {8a95e0fa-589f-4c42-a2bb-9ab813887c39}, !- Handle
  Surface 2,                              !- Name
  Wall,                                   !- Surface Type
  ,                                       !- Construction Name
  {f0c0d99f-8c65-46b5-a9d7-90f09559dbb2}, !- Space Name
  Outdoors,                               !- Outside Boundary Condition
  ,                                       !- Outside Boundary Condition Object
  SunExposed,                             !- Sun Exposure
  WindExposed,                            !- Wind Exposure
  ,                                       !- View Factor to Ground
  ,                                       !- Number of Vertices
  1.77635683940025e-15, 11.129722368505, 3.048, !- X,Y,Z Vertex 1 {m}
  1.77635683940025e-15, 11.129722368505, 0, !- X,Y,Z Vertex 2 {m}
  1.77635683940025e-15, -2.66453525910038e-15, 0, !- X,Y,Z Vertex 3 {m}
  1.77635683940025e-15, -2.66453525910038e-15, 3.048; !- X,Y,Z Vertex 4 {m}

OS:Surface,
  {885216d4-92c0-41ee-a79f-34ab3f781a10}, !- Handle
  Surface 3,                              !- Name
  Wall,                                   !- Surface Type
  ,                                       !- Construction Name
  {f0c0d99f-8c65-46b5-a9d7-90f09559dbb2}, !- Space Name
  Outdoors,                               !- Outside Boundary Condition
  ,                                       !- Outside Boundary Condition Object
  SunExposed,                             !- Sun Exposure
  WindExposed,                            !- Wind Exposure
  ,                                       !- View Factor to Ground
  ,                                       !- Number of Vertices
  16.6945835527575, 11.129722368505, 3.048, !- X,Y,Z Vertex 1 {m}
  16.6945835527575, 11.129722368505, 0,   !- X,Y,Z Vertex 2 {m}
  1.77635683940025e-15, 11.129722368505, 0, !- X,Y,Z Vertex 3 {m}
  1.77635683940025e-15, 11.129722368505, 3.048; !- X,Y,Z Vertex 4 {m}

OS:Surface,
  {796097cc-d3b7-485f-b7d9-a2d4e8d8a045}, !- Handle
  Surface 4,                              !- Name
  Wall,                                   !- Surface Type
  ,                                       !- Construction Name
  {f0c0d99f-8c65-46b5-a9d7-90f09559dbb2}, !- Space Name
  Outdoors,                               !- Outside Boundary Condition
  ,                                       !- Outside Boundary Condition Object
  SunExposed,                             !- Sun Exposure
  WindExposed,                            !- Wind Exposure
  ,                                       !- View Factor to Ground
  ,                                       !- Number of Vertices
  16.6945835527575, -2.66453525910038e-15, 3.048, !- X,Y,Z Vertex 1 {m}
  16.6945835527575, -2.66453525910038e-15, 0, !- X,Y,Z Vertex 2 {m}
  16.6945835527575, 11.129722368505, 0,   !- X,Y,Z Vertex 3 {m}
  16.6945835527575, 11.129722368505, 3.048; !- X,Y,Z Vertex 4 {m}

OS:Surface,
  {0904b2ea-288d-4ffc-919c-6f010c943185}, !- Handle
  Surface 5,                              !- Name
  Wall,                                   !- Surface Type
  ,                                       !- Construction Name
  {f0c0d99f-8c65-46b5-a9d7-90f09559dbb2}, !- Space Name
  Outdoors,                               !- Outside Boundary Condition
  ,                                       !- Outside Boundary Condition Object
  SunExposed,                             !- Sun Exposure
  WindExposed,                            !- Wind Exposure
  ,                                       !- View Factor to Ground
  ,                                       !- Number of Vertices
  1.77635683940025e-15, -2.66453525910038e-15, 3.048, !- X,Y,Z Vertex 1 {m}
  1.77635683940025e-15, -2.66453525910038e-15, 0, !- X,Y,Z Vertex 2 {m}
  16.6945835527575, -2.66453525910038e-15, 0, !- X,Y,Z Vertex 3 {m}
  16.6945835527575, -2.66453525910038e-15, 3.048; !- X,Y,Z Vertex 4 {m}

OS:Surface,
  {38a9a622-70e0-4d16-bf34-38a783ea7e82}, !- Handle
  Surface 6,                              !- Name
  RoofCeiling,                            !- Surface Type
  ,                                       !- Construction Name
  {f0c0d99f-8c65-46b5-a9d7-90f09559dbb2}, !- Space Name
  Outdoors,                               !- Outside Boundary Condition
  ,                                       !- Outside Boundary Condition Object
  SunExposed,                             !- Sun Exposure
  WindExposed,                            !- Wind Exposure
  ,                                       !- View Factor to Ground
  ,                                       !- Number of Vertices
  16.6945835527575, -2.66453525910038e-15, 3.048, !- X,Y,Z Vertex 1 {m}
  16.6945835527575, 11.129722368505, 3.048, !- X,Y,Z Vertex 2 {m}
  1.77635683940025e-15, 11.129722368505, 3.048, !- X,Y,Z Vertex 3 {m}
  1.77635683940025e-15, -2.66453525910038e-15, 3.048; !- X,Y,Z Vertex 4 {m}

OS:ThermalZone,
  {6dc342ab-0555-450b-8971-5ad14babb60c}, !- Handle
  Zone Office WholeBuilding - Sm Office  - Story Ground, !- Name
  1,                                      !- Multiplier
  ,                                       !- Ceiling Height {m}
  ,                                       !- Volume {m3}
  ,                                       !- Floor Area {m2}
  ,                                       !- Zone Inside Convection Algorithm
  ,                                       !- Zone Outside Convection Algorithm
  ,                                       !- Zone Conditioning Equipment List Name
  {e1350632-17d7-4d5a-b772-8108ccf9485d}, !- Zone Air Inlet Port List
  {77f03cec-68dd-40f0-ada8-cd47c48b1217}, !- Zone Air Exhaust Port List
  {d1c1c768-e8e6-416a-bf92-c9deba56997f}, !- Zone Air Node Name
  {8ab6590b-d33a-40fd-9168-0e6b00aa72b5}, !- Zone Return Air Port List
  ,                                       !- Primary Daylighting Control Name
  ,                                       !- Fraction of Zone Controlled by Primary Daylighting Control
  ,                                       !- Secondary Daylighting Control Name
  ,                                       !- Fraction of Zone Controlled by Secondary Daylighting Control
  ,                                       !- Illuminance Map Name
  ,                                       !- Group Rendering Name
  {0903aecc-eb6d-44fe-bb9a-d748488063f7}, !- Thermostat Name
  No;                                     !- Use Ideal Air Loads

OS:Node,
  {dc66b56b-99e2-40ac-9c8f-c61bce8cdd9d}, !- Handle
  Zone Office WholeBuilding - Sm Office  - Story Ground Zone Air Node, !- Name
  {d1c1c768-e8e6-416a-bf92-c9deba56997f}, !- Inlet Port
  ;                                       !- Outlet Port

OS:Connection,
  {d1c1c768-e8e6-416a-bf92-c9deba56997f}, !- Handle
  {690eaab5-31dc-45b6-ab09-b869fa315e96}, !- Name
  {6dc342ab-0555-450b-8971-5ad14babb60c}, !- Source Object
  11,                                     !- Outlet Port
  {dc66b56b-99e2-40ac-9c8f-c61bce8cdd9d}, !- Target Object
  2;                                      !- Inlet Port

OS:PortList,
  {e1350632-17d7-4d5a-b772-8108ccf9485d}, !- Handle
  {3d0e0a44-facf-4a26-9f04-c8da5cbb0afd}, !- Name
  {6dc342ab-0555-450b-8971-5ad14babb60c}, !- HVAC Component
  {975b25cc-2f73-41c0-989d-33ffef6b45cf}; !- Port 1

OS:PortList,
  {77f03cec-68dd-40f0-ada8-cd47c48b1217}, !- Handle
  {35fa73d1-bcb7-472a-b53c-9647f22b0860}, !- Name
  {6dc342ab-0555-450b-8971-5ad14babb60c}; !- HVAC Component

OS:PortList,
  {8ab6590b-d33a-40fd-9168-0e6b00aa72b5}, !- Handle
  {2c1a56ed-b8f4-4d76-b400-a2bace324537}, !- Name
  {6dc342ab-0555-450b-8971-5ad14babb60c}, !- HVAC Component
  {c08950a3-6b78-4759-854d-bd7fcb022ceb}; !- Port 1

OS:Sizing:Zone,
  {34aac228-29c8-443a-a215-cb6040fe6a72}, !- Handle
  {6dc342ab-0555-450b-8971-5ad14babb60c}, !- Zone or ZoneList Name
  SupplyAirTemperature,                   !- Zone Cooling Design Supply Air Temperature Input Method
  12.7777777777778,                       !- Zone Cooling Design Supply Air Temperature {C}
  11.11,                                  !- Zone Cooling Design Supply Air Temperature Difference {deltaC}
  SupplyAirTemperature,                   !- Zone Heating Design Supply Air Temperature Input Method
  50.0000000000001,                       !- Zone Heating Design Supply Air Temperature {C}
  11.11,                                  !- Zone Heating Design Supply Air Temperature Difference {deltaC}
  0.0085,                                 !- Zone Cooling Design Supply Air Humidity Ratio {kg-H2O/kg-air}
  0.008,                                  !- Zone Heating Design Supply Air Humidity Ratio {kg-H2O/kg-air}
  ,                                       !- Zone Heating Sizing Factor
  ,                                       !- Zone Cooling Sizing Factor
  DesignDay,                              !- Cooling Design Air Flow Method
  ,                                       !- Cooling Design Air Flow Rate {m3/s}
  ,                                       !- Cooling Minimum Air Flow per Zone Floor Area {m3/s-m2}
  ,                                       !- Cooling Minimum Air Flow {m3/s}
  ,                                       !- Cooling Minimum Air Flow Fraction
  DesignDay,                              !- Heating Design Air Flow Method
  ,                                       !- Heating Design Air Flow Rate {m3/s}
  ,                                       !- Heating Maximum Air Flow per Zone Floor Area {m3/s-m2}
  ,                                       !- Heating Maximum Air Flow {m3/s}
  ,                                       !- Heating Maximum Air Flow Fraction
  No,                                     !- Account for Dedicated Outdoor Air System
  NeutralSupplyAir,                       !- Dedicated Outdoor Air System Control Strategy
  autosize,                               !- Dedicated Outdoor Air Low Setpoint Temperature for Design {C}
  autosize;                               !- Dedicated Outdoor Air High Setpoint Temperature for Design {C}

OS:ZoneHVAC:EquipmentList,
  {dda9b2cd-0bcf-4308-b654-f5cf760caaa1}, !- Handle
  Zone Office WholeBuilding - Sm Office  - Story Ground Zone HVAC Equipment List, !- Name
  {6dc342ab-0555-450b-8971-5ad14babb60c}, !- Thermal Zone
  ,                                       !- Load Distribution Scheme
  {e7bc5187-5abb-4078-a47e-8e5441f9509a}, !- Zone Equipment 1
  1,                                      !- Zone Equipment Cooling Sequence 1
  1,                                      !- Zone Equipment Heating or No-Load Sequence 1
  ,                                       !- Zone Equipment Sequential Cooling Fraction Schedule Name 1
  ;                                       !- Zone Equipment Sequential Heating Fraction Schedule Name 1

OS:SubSurface,
  {00f69b1d-aeb1-4aba-9e25-36e367b0c3ed}, !- Handle
  Sub Surface 1,                          !- Name
  FixedWindow,                            !- Sub Surface Type
  ,                                       !- Construction Name
  {8a95e0fa-589f-4c42-a2bb-9ab813887c39}, !- Surface Name
  ,                                       !- Outside Boundary Condition Object
  ,                                       !- View Factor to Ground
  ,                                       !- Shading Control Name
  ,                                       !- Frame and Divider Name
  ,                                       !- Multiplier
  ,                                       !- Number of Vertices
  1.77635683940025e-15, 11.104322368505, 1.22129639161892, !- X,Y,Z Vertex 1 {m}
  1.77635683940025e-15, 11.104322368505, 0.762, !- X,Y,Z Vertex 2 {m}
  1.77635683940025e-15, 0.0253999999999976, 0.762, !- X,Y,Z Vertex 3 {m}
  1.77635683940025e-15, 0.0253999999999976, 1.22129639161892; !- X,Y,Z Vertex 4 {m}

OS:SubSurface,
  {eb11d6ed-ba47-4919-9bd5-b99db716dec9}, !- Handle
  Sub Surface 2,                          !- Name
  FixedWindow,                            !- Sub Surface Type
  ,                                       !- Construction Name
  {796097cc-d3b7-485f-b7d9-a2d4e8d8a045}, !- Surface Name
  ,                                       !- Outside Boundary Condition Object
  ,                                       !- View Factor to Ground
  ,                                       !- Shading Control Name
  ,                                       !- Frame and Divider Name
  ,                                       !- Multiplier
  ,                                       !- Number of Vertices
  16.6945835527575, 0.0253999999999973, 1.22129639161892, !- X,Y,Z Vertex 1 {m}
  16.6945835527575, 0.0253999999999973, 0.762, !- X,Y,Z Vertex 2 {m}
  16.6945835527575, 11.104322368505, 0.762, !- X,Y,Z Vertex 3 {m}
  16.6945835527575, 11.104322368505, 1.22129639161892; !- X,Y,Z Vertex 4 {m}

OS:SubSurface,
  {4bd8bf0d-1e56-439b-a2db-685bb60f4d88}, !- Handle
  Sub Surface 3,                          !- Name
  FixedWindow,                            !- Sub Surface Type
  ,                                       !- Construction Name
  {885216d4-92c0-41ee-a79f-34ab3f781a10}, !- Surface Name
  ,                                       !- Outside Boundary Condition Object
  ,                                       !- View Factor to Ground
  ,                                       !- Shading Control Name
  ,                                       !- Frame and Divider Name
  ,                                       !- Multiplier
  ,                                       !- Number of Vertices
  16.6691835527575, 11.129722368505, 1.22059546155034, !- X,Y,Z Vertex 1 {m}
  16.6691835527575, 11.129722368505, 0.762, !- X,Y,Z Vertex 2 {m}
  0.0253999999999976, 11.129722368505, 0.762, !- X,Y,Z Vertex 3 {m}
  0.0253999999999976, 11.129722368505, 1.22059546155034; !- X,Y,Z Vertex 4 {m}

OS:SubSurface,
  {1ac56f4e-5976-4a89-a2b3-3065bad00aa7}, !- Handle
  Sub Surface 4,                          !- Name
  FixedWindow,                            !- Sub Surface Type
  ,                                       !- Construction Name
  {0904b2ea-288d-4ffc-919c-6f010c943185}, !- Surface Name
  ,                                       !- Outside Boundary Condition Object
  ,                                       !- View Factor to Ground
  ,                                       !- Shading Control Name