
OS:Version,
  {b964bb61-41e6-4445-bbd7-fec26499155a}, !- Handle
  2.8.1;                                  !- Version Identifier

OS:Facility,
  {65284279-074a-4ab6-bf3b-3e62ccb2355d}; !- Handle

OS:Site,
  {ee822688-f5b4-4fe7-a5c5-617585c60ecc}, !- Handle
  Denver Centennial  Golden   Nr_CO_USA,  !- Name
  39.74,                                  !- Latitude {deg}
  -105.18,                                !- Longitude {deg}
  -7,                                     !- Time Zone {hr}
  1829,                                   !- Elevation {m}
  City;                                   !- Terrain

OS:SimulationControl,
  {5850064d-e0e1-4dd0-bc36-a5773410af4c}, !- Handle
  ,                                       !- Do Zone Sizing Calculation
  ,                                       !- Do System Sizing Calculation
  ,                                       !- Do Plant Sizing Calculation
  No,                                     !- Run Simulation for Sizing Periods
  Yes;                                    !- Run Simulation for Weather File Run Periods

OS:Sizing:Parameters,
  {dcce3fe7-6052-4b9d-94d7-5f1a13c56a9c}, !- Handle
  1.25,                                   !- Heating Sizing Factor
  1.15;                                   !- Cooling Sizing Factor

OS:Timestep,
  {9784871f-17df-4bef-a0ae-aa68c422e4f1}, !- Handle
  1;                                      !- Number of Timesteps per Hour

OS:ShadowCalculation,
  {e5cafc78-38dc-403a-bed4-2a88ac89e069}, !- Handle
  20,                                     !- Calculation Frequency
  15000;                                  !- Maximum Figures in Shadow Overlap Calculations

OS:HeatBalanceAlgorithm,
  {f2e946ad-37a2-4e17-9d1b-0587b3017eab}, !- Handle
  ConductionTransferFunction,             !- Algorithm
  200;                                    !- Surface Temperature Upper Limit {C}

OS:RunPeriod,
  {f6856e82-45cb-46ae-9b10-93198942c2ec}, !- Handle
  Run Period 1,                           !- Name
  6,                                      !- Begin Month
  1,                                      !- Begin Day of Month
  6,                                      !- End Month
  1,                                      !- End Day of Month
  ,                                       !- Use Weather File Holidays and Special Days
  ,                                       !- Use Weather File Daylight Saving Period
  ,                                       !- Apply Weekend Holiday Rule
  ,                                       !- Use Weather File Rain Indicators
  ,                                       !- Use Weather File Snow Indicators
  ;                                       !- Number of Times Runperiod to be Repeated

OS:LifeCycleCost:Parameters,
  {665a25d6-45fb-4379-8b29-0a365077bbbc}, !- Handle
  ,                                       !- Analysis Type
  ,                                       !- Discounting Convention
  ,                                       !- Inflation Approach
  ,                                       !- Real Discount Rate
  ,                                       !- Nominal Discount Rate
  ,                                       !- Inflation
  ,                                       !- Base Date Month
  ,                                       !- Base Date Year
  ,                                       !- Service Date Month
  ,                                       !- Service Date Year
  ;                                       !- Length of Study Period in Years

OS:WeatherFile,
  {28c973bb-4df9-4338-8e08-cd81d3b3c068}, !- Handle
  Denver Centennial  Golden   Nr,         !- City
  CO,                                     !- State Province Region
  USA,                                    !- Country
  TMY3,                                   !- Data Source
  724666,                                 !- WMO Number
  39.74,                                  !- Latitude {deg}
  -105.18,                                !- Longitude {deg}
  -7,                                     !- Time Zone {hr}
  1829,                                   !- Elevation {m}
  file:///C:/gitrepos/urbanopt-scenario-gem/spec/files/weather/urbanopt_scenario_tests.epw, !- Url
  ;                                       !- Checksum

OS:Site:WaterMainsTemperature,
  {5c443556-ba44-493a-a959-8c27cc2bfad4}, !- Handle
  Correlation,                            !- Calculation Method
  ,                                       !- Temperature Schedule Name
  9.7,                                    !- Annual Average Outdoor Air Temperature {C}
  22.8;                                   !- Maximum Difference In Monthly Average Outdoor Air Temperatures {deltaC}

OS:SizingPeriod:DesignDay,
  {2cbcc311-a2fe-486e-9ff1-773274b82966}, !- Handle
  Denver Centennial  Golden   N Ann Clg .4% Condns DB=>MWB 1, !- Name
  33,                                     !- Maximum Dry-Bulb Temperature {C}
  15.2,                                   !- Daily Dry-Bulb Temperature Range {deltaC}
  15.7,                                   !- Humidity Indicating Conditions at Maximum Dry-Bulb
  81198,                                  !- Barometric Pressure {Pa}
  4.9,                                    !- Wind Speed {m/s}
  0,                                      !- Wind Direction {deg}
  0,                                      !- Sky Clearness
  0,                                      !- Rain Indicator
  0,                                      !- Snow Indicator
  21,                                     !- Day of Month
  7,                                      !- Month
  SummerDesignDay,                        !- Day Type
  0,                                      !- Daylight Saving Time Indicator
  Wetbulb,                                !- Humidity Indicating Type
  ,                                       !- Humidity Indicating Day Schedule Name
  DefaultMultipliers,                     !- Dry-Bulb Temperature Range Modifier Type
  ,                                       !- Dry-Bulb Temperature Range Modifier Schedule Name
  ASHRAETau,                              !- Solar Model Indicator
  ,                                       !- Beam Solar Day Schedule Name
  ,                                       !- Diffuse Solar Day Schedule Name
  0.424,                                  !- ASHRAE Taub {dimensionless}
  2.025;                                  !- ASHRAE Taud {dimensionless}

OS:SizingPeriod:DesignDay,
  {8d56d9a4-182b-4dd5-8a26-51b5e077a7cf}, !- Handle
  Denver Centennial  Golden   N Ann Clg .4% Condns WB=>MDB 1, !- Name
  27.3,                                   !- Maximum Dry-Bulb Temperature {C}
  15.2,                                   !- Daily Dry-Bulb Temperature Range {deltaC}
  18.4,                                   !- Humidity Indicating Conditions at Maximum Dry-Bulb
  81198,                                  !- Barometric Pressure {Pa}
  4.9,                                    !- Wind Speed {m/s}
  0,                                      !- Wind Direction {deg}
  0,                                      !- Sky Clearness
  0,                                      !- Rain Indicator
  0,                                      !- Snow Indicator
  21,                                     !- Day of Month
  7,                                      !- Month
  SummerDesignDay,                        !- Day Type
  0,                                      !- Daylight Saving Time Indicator
  Wetbulb,                                !- Humidity Indicating Type
  ,                                       !- Humidity Indicating Day Schedule Name
  DefaultMultipliers,                     !- Dry-Bulb Temperature Range Modifier Type
  ,                                       !- Dry-Bulb Temperature Range Modifier Schedule Name
  ASHRAETau,                              !- Solar Model Indicator
  ,                                       !- Beam Solar Day Schedule Name
  ,                                       !- Diffuse Solar Day Schedule Name
  0.424,                                  !- ASHRAE Taub {dimensionless}
  2.025;                                  !- ASHRAE Taud {dimensionless}

OS:SizingPeriod:DesignDay,
  {d4ed1558-dba8-418c-aadd-b316a66a21b5}, !- Handle
  Denver Centennial  Golden   N Ann Htg 99.6% Condns DB 1, !- Name
  -18.8,                                  !- Maximum Dry-Bulb Temperature {C}
  0,                                      !- Daily Dry-Bulb Temperature Range {deltaC}
  -18.8,                                  !- Humidity Indicating Conditions at Maximum Dry-Bulb
  81198,                                  !- Barometric Pressure {Pa}
  3,                                      !- Wind Speed {m/s}
  340,                                    !- Wind Direction {deg}
  0,                                      !- Sky Clearness
  0,                                      !- Rain Indicator
  0,                                      !- Snow Indicator
  21,                                     !- Day of Month
  12,                                     !- Month
  WinterDesignDay,                        !- Day Type
  0,                                      !- Daylight Saving Time Indicator
  Wetbulb,                                !- Humidity Indicating Type
  ,                                       !- Humidity Indicating Day Schedule Name
  DefaultMultipliers,                     !- Dry-Bulb Temperature Range Modifier Type
  ,                                       !- Dry-Bulb Temperature Range Modifier Schedule Name
  ASHRAEClearSky;                         !- Solar Model Indicator

OS:ClimateZones,
  {bc4180eb-9a4e-4776-bbda-35f06cf99a30}, !- Handle
  ,                                       !- Active Institution
  ,                                       !- Active Year
  ASHRAE,                                 !- Climate Zone Institution Name 1
  ANSI/ASHRAE Standard 169,               !- Climate Zone Document Name 1
  2006,                                   !- Climate Zone Document Year 1
  5B;                                     !- Climate Zone Value 1

OS:YearDescription,
  {9878e497-be73-4fbb-99d7-d833efcbe423}, !- Handle
  2012,                                   !- Calendar Year
  ,                                       !- Day of Week for Start Day
  ;                                       !- Is Leap Year

OS:Building,
  {65ea4a13-5b05-4e1c-8ec3-8c1861dc57e8}, !- Handle
  90.1-2004|SmallOffice,                  !- Name
  ,                                       !- Building Sector Type
  ,                                       !- North Axis {deg}
  ,                                       !- Nominal Floor to Floor Height {m}
  ,                                       !- Space Type Name
  {314dbe6a-8569-402d-9ad0-725590cf3b23}, !- Default Construction Set Name
  ,                                       !- Default Schedule Set Name
  ,                                       !- Standards Number of Stories
  ,                                       !- Standards Number of Above Ground Stories
  ,                                       !- Standards Template
  Office;                                 !- Standards Building Type

OS:SpaceType,
  {0a8b6dd4-4afb-472f-bf96-d5d8c3d8e483}, !- Handle
  Office WholeBuilding - Sm Office - 90.1-2004, !- Name
  ,                                       !- Default Construction Set Name
  {7e99bc00-8999-4c73-a375-1a90b845987f}, !- Default Schedule Set Name
  ,                                       !- Group Rendering Name
  {52467318-5aaf-4c70-be1c-13e362ed65ae}, !- Design Specification Outdoor Air Object Name
  ,                                       !- Standards Template
  Office,                                 !- Standards Building Type
  WholeBuilding - Sm Office;              !- Standards Space Type

OS:BuildingStory,
  {573eeae1-c3b1-40d1-ac0f-65c7d3435c7e}, !- Handle
  Story Ground,                           !- Name
  0,                                      !- Nominal Z Coordinate {m}
  3.048,                                  !- Nominal Floor to Floor Height {m}
  ,                                       !- Default Construction Set Name
  ,                                       !- Default Schedule Set Name
  ;                                       !- Group Rendering Name

OS:Space,
  {5035f21a-4bd5-47b1-a354-07d25532a431}, !- Handle
  Office WholeBuilding - Sm Office  - Story Ground, !- Name
  {0a8b6dd4-4afb-472f-bf96-d5d8c3d8e483}, !- Space Type Name
  ,                                       !- Default Construction Set Name
  ,                                       !- Default Schedule Set Name
  -0,                                     !- Direction of Relative North {deg}
  -8.34729177637873,                      !- X Origin {m}
  -5.56486118425249,                      !- Y Origin {m}
  0,                                      !- Z Origin {m}
  {573eeae1-c3b1-40d1-ac0f-65c7d3435c7e}, !- Building Story Name
  {f7d66576-ab2f-4baf-9f6e-e771d5959dce}; !- Thermal Zone Name

OS:Surface,
  {0fb2d88c-f57c-41de-a139-b9d2f4ee58ba}, !- Handle
  Surface 1,                              !- Name
  Floor,                                  !- Surface Type
  ,                                       !- Construction Name
  {5035f21a-4bd5-47b1-a354-07d25532a431}, !- Space Name
  Ground,                                 !- Outside Boundary Condition
  ,                                       !- Outside Boundary Condition Object
  NoSun,                                  !- Sun Exposure
  NoWind,                                 !- Wind Exposure
  ,                                       !- View Factor to Ground
  ,                                       !- Number of Vertices
  1.77635683940025e-015, -2.66453525910038e-015, 0, !- X,Y,Z Vertex 1 {m}
  1.77635683940025e-015, 11.129722368505, 0, !- X,Y,Z Vertex 2 {m}
  16.6945835527575, 11.129722368505, 0,   !- X,Y,Z Vertex 3 {m}
  16.6945835527575, -2.66453525910038e-015, 0; !- X,Y,Z Vertex 4 {m}

OS:Surface,
  {44681a6b-ebc9-469b-bfc2-9175573a9b1e}, !- Handle
  Surface 2,                              !- Name
  Wall,                                   !- Surface Type
  ,                                       !- Construction Name
  {5035f21a-4bd5-47b1-a354-07d25532a431}, !- Space Name
  Outdoors,                               !- Outside Boundary Condition
  ,                                       !- Outside Boundary Condition Object
  SunExposed,                             !- Sun Exposure
  WindExposed,                            !- Wind Exposure
  ,                                       !- View Factor to Ground
  ,                                       !- Number of Vertices
  1.77635683940025e-015, 11.129722368505, 3.048, !- X,Y,Z Vertex 1 {m}
  1.77635683940025e-015, 11.129722368505, 0, !- X,Y,Z Vertex 2 {m}
  1.77635683940025e-015, -2.66453525910038e-015, 0, !- X,Y,Z Vertex 3 {m}
  1.77635683940025e-015, -2.66453525910038e-015, 3.048; !- X,Y,Z Vertex 4 {m}

OS:Surface,
  {519f25bf-c72a-44fc-9f39-830081acbf44}, !- Handle
  Surface 3,                              !- Name
  Wall,                                   !- Surface Type
  ,                                       !- Construction Name
  {5035f21a-4bd5-47b1-a354-07d25532a431}, !- Space Name
  Outdoors,                               !- Outside Boundary Condition
  ,                                       !- Outside Boundary Condition Object
  SunExposed,                             !- Sun Exposure
  WindExposed,                            !- Wind Exposure
  ,                                       !- View Factor to Ground
  ,                                       !- Number of Vertices
  16.6945835527575, 11.129722368505, 3.048, !- X,Y,Z Vertex 1 {m}
  16.6945835527575, 11.129722368505, 0,   !- X,Y,Z Vertex 2 {m}
  1.77635683940025e-015, 11.129722368505, 0, !- X,Y,Z Vertex 3 {m}
  1.77635683940025e-015, 11.129722368505, 3.048; !- X,Y,Z Vertex 4 {m}

OS:Surface,
  {3e72ffb2-8134-4178-9ba6-cf2d3ec80cdd}, !- Handle
  Surface 4,                              !- Name
  Wall,                                   !- Surface Type
  ,                                       !- Construction Name
  {5035f21a-4bd5-47b1-a354-07d25532a431}, !- Space Name
  Outdoors,                               !- Outside Boundary Condition
  ,                                       !- Outside Boundary Condition Object
  SunExposed,                             !- Sun Exposure
  WindExposed,                            !- Wind Exposure
  ,                                       !- View Factor to Ground
  ,                                       !- Number of Vertices
  16.6945835527575, -2.66453525910038e-015, 3.048, !- X,Y,Z Vertex 1 {m}
  16.6945835527575, -2.66453525910038e-015, 0, !- X,Y,Z Vertex 2 {m}
  16.6945835527575, 11.129722368505, 0,   !- X,Y,Z Vertex 3 {m}
  16.6945835527575, 11.129722368505, 3.048; !- X,Y,Z Vertex 4 {m}

OS:Surface,
  {76ba9eab-1c70-4285-aebc-3f1030ee3fec}, !- Handle
  Surface 5,                              !- Name
  Wall,                                   !- Surface Type
  ,                                       !- Construction Name
  {5035f21a-4bd5-47b1-a354-07d25532a431}, !- Space Name
  Outdoors,                               !- Outside Boundary Condition
  ,                                       !- Outside Boundary Condition Object
  SunExposed,                             !- Sun Exposure
  WindExposed,                            !- Wind Exposure
  ,                                       !- View Factor to Ground
  ,                                       !- Number of Vertices
  1.77635683940025e-015, -2.66453525910038e-015, 3.048, !- X,Y,Z Vertex 1 {m}
  1.77635683940025e-015, -2.66453525910038e-015, 0, !- X,Y,Z Vertex 2 {m}
  16.6945835527575, -2.66453525910038e-015, 0, !- X,Y,Z Vertex 3 {m}
  16.6945835527575, -2.66453525910038e-015, 3.048; !- X,Y,Z Vertex 4 {m}

OS:Surface,
  {02c44834-45f0-43e4-9d8a-4d55f4b2a829}, !- Handle
  Surface 6,                              !- Name
  RoofCeiling,                            !- Surface Type
  ,                                       !- Construction Name
  {5035f21a-4bd5-47b1-a354-07d25532a431}, !- Space Name
  Outdoors,                               !- Outside Boundary Condition
  ,                                       !- Outside Boundary Condition Object
  SunExposed,                             !- Sun Exposure
  WindExposed,                            !- Wind Exposure
  ,                                       !- View Factor to Ground
  ,                                       !- Number of Vertices
  16.6945835527575, -2.66453525910038e-015, 3.048, !- X,Y,Z Vertex 1 {m}
  16.6945835527575, 11.129722368505, 3.048, !- X,Y,Z Vertex 2 {m}
  1.77635683940025e-015, 11.129722368505, 3.048, !- X,Y,Z Vertex 3 {m}
  1.77635683940025e-015, -2.66453525910038e-015, 3.048; !- X,Y,Z Vertex 4 {m}

OS:ThermalZone,
  {f7d66576-ab2f-4baf-9f6e-e771d5959dce}, !- Handle
  Zone Office WholeBuilding - Sm Office  - Story Ground, !- Name
  1,                                      !- Multiplier
  ,                                       !- Ceiling Height {m}
  ,                                       !- Volume {m3}
  ,                                       !- Floor Area {m2}
  ,                                       !- Zone Inside Convection Algorithm
  ,                                       !- Zone Outside Convection Algorithm
  ,                                       !- Zone Conditioning Equipment List Name
  {41227fe2-b09c-4384-8a06-e342dae13e51}, !- Zone Air Inlet Port List
  {816edc71-152c-4bbb-9fcf-3ce8cdc7de05}, !- Zone Air Exhaust Port List
  {cd490b33-eb7e-4e51-bd58-18373e57137d}, !- Zone Air Node Name
  {f66af6e7-b405-4cf1-b32a-8dd8fe33f734}, !- Zone Return Air Port List
  ,                                       !- Primary Daylighting Control Name
  ,                                       !- Fraction of Zone Controlled by Primary Daylighting Control
  ,                                       !- Secondary Daylighting Control Name
  ,                                       !- Fraction of Zone Controlled by Secondary Daylighting Control
  ,                                       !- Illuminance Map Name
  ,                                       !- Group Rendering Name
  {4c0e146d-e34e-47f7-877e-56f552614d90}, !- Thermostat Name
  No;                                     !- Use Ideal Air Loads

OS:Node,
  {21c681ab-e8af-4c0c-b8e4-83a20c8e9db7}, !- Handle
  Zone Office WholeBuilding - Sm Office  - Story Ground Zone Air Node, !- Name
  {cd490b33-eb7e-4e51-bd58-18373e57137d}, !- Inlet Port
  ;                                       !- Outlet Port

OS:Connection,
  {cd490b33-eb7e-4e51-bd58-18373e57137d}, !- Handle
  {d9f2aaab-4f15-4b61-8891-43529520c016}, !- Name
  {f7d66576-ab2f-4baf-9f6e-e771d5959dce}, !- Source Object
  11,                                     !- Outlet Port
  {21c681ab-e8af-4c0c-b8e4-83a20c8e9db7}, !- Target Object
  2;                                      !- Inlet Port

OS:PortList,
  {41227fe2-b09c-4384-8a06-e342dae13e51}, !- Handle
  {2160bccf-4196-4791-a0d5-017363ae833a}, !- Name
  {f7d66576-ab2f-4baf-9f6e-e771d5959dce}, !- HVAC Component
  {6e686003-2c85-45ee-bf53-86ccab0aa6c6}; !- Port 1

OS:PortList,
  {816edc71-152c-4bbb-9fcf-3ce8cdc7de05}, !- Handle
  {a65eeffd-614c-4a6a-a34f-77ae5b7c5153}, !- Name
  {f7d66576-ab2f-4baf-9f6e-e771d5959dce}; !- HVAC Component

OS:PortList,
  {f66af6e7-b405-4cf1-b32a-8dd8fe33f734}, !- Handle
  {bb017628-60da-4c09-a3de-103b0b8e20d0}, !- Name
  {f7d66576-ab2f-4baf-9f6e-e771d5959dce}, !- HVAC Component
  {b1b96cb8-8447-46ee-a5f3-b2120523d0db}; !- Port 1

OS:Sizing:Zone,
  {6e8c0ecd-785a-46c4-b0bb-865a84a8c200}, !- Handle
  {f7d66576-ab2f-4baf-9f6e-e771d5959dce}, !- Zone or ZoneList Name
  SupplyAirTemperature,                   !- Zone Cooling Design Supply Air Temperature Input Method
  12.7777777777778,                       !- Zone Cooling Design Supply Air Temperature {C}
  11.11,                                  !- Zone Cooling Design Supply Air Temperature Difference {deltaC}
  SupplyAirTemperature,                   !- Zone Heating Design Supply Air Temperature Input Method
  50.0000000000001,                       !- Zone Heating Design Supply Air Temperature {C}
  11.11,                                  !- Zone Heating Design Supply Air Temperature Difference {deltaC}
  0.0085,                                 !- Zone Cooling Design Supply Air Humidity Ratio {kg-H2O/kg-air}
  0.008,                                  !- Zone Heating Design Supply Air Humidity Ratio {kg-H2O/kg-air}
  ,                                       !- Zone Heating Sizing Factor
  ,                                       !- Zone Cooling Sizing Factor
  DesignDay,                              !- Cooling Design Air Flow Method
  ,                                       !- Cooling Design Air Flow Rate {m3/s}
  ,                                       !- Cooling Minimum Air Flow per Zone Floor Area {m3/s-m2}
  ,                                       !- Cooling Minimum Air Flow {m3/s}
  ,                                       !- Cooling Minimum Air Flow Fraction
  DesignDay,                              !- Heating Design Air Flow Method
  ,                                       !- Heating Design Air Flow Rate {m3/s}
  ,                                       !- Heating Maximum Air Flow per Zone Floor Area {m3/s-m2}
  ,                                       !- Heating Maximum Air Flow {m3/s}
  ,                                       !- Heating Maximum Air Flow Fraction
  ,                                       !- Design Zone Air Distribution Effectiveness in Cooling Mode
  ,                                       !- Design Zone Air Distribution Effectiveness in Heating Mode
  No,                                     !- Account for Dedicated Outdoor Air System
  NeutralSupplyAir,                       !- Dedicated Outdoor Air System Control Strategy
  autosize,                               !- Dedicated Outdoor Air Low Setpoint Temperature for Design {C}
  autosize;                               !- Dedicated Outdoor Air High Setpoint Temperature for Design {C}

OS:ZoneHVAC:EquipmentList,
  {6426004d-2fe0-42cb-a4d0-98ad71046212}, !- Handle
  Zone Office WholeBuilding - Sm Office  - Story Ground Zone HVAC Equipment List, !- Name
  {f7d66576-ab2f-4baf-9f6e-e771d5959dce}, !- Thermal Zone
  ,                                       !- Load Distribution Scheme
  {abf022de-8089-49f8-aca3-1b6ad8da9729}, !- Zone Equipment 1
  1,                                      !- Zone Equipment Cooling Sequence 1
  1,                                      !- Zone Equipment Heating or No-Load Sequence 1
  ,                                       !- Zone Equipment Sequential Cooling Fraction 1
  ;                                       !- Zone Equipment Sequential Heating Fraction 1

OS:SubSurface,
  {c21b378f-8cbf-4fd7-91cb-9457528f2689}, !- Handle
  Sub Surface 1,                          !- Name
  FixedWindow,                            !- Sub Surface Type
  ,                                       !- Construction Name
  {519f25bf-c72a-44fc-9f39-830081acbf44}, !- Surface Name
  ,                                       !- Outside Boundary Condition Object
  ,                                       !- View Factor to Ground
  ,                                       !- Shading Control Name
  ,                                       !- Frame and Divider Name
  ,                                       !- Multiplier
  ,                                       !- Number of Vertices
  16.6691835527575, 11.129722368505, 1.22059546155034, !- X,Y,Z Vertex 1 {m}
  16.6691835527575, 11.129722368505, 0.762, !- X,Y,Z Vertex 2 {m}
  0.0253999999999976, 11.129722368505, 0.762, !- X,Y,Z Vertex 3 {m}
  0.0253999999999976, 11.129722368505, 1.22059546155034; !- X,Y,Z Vertex 4 {m}

OS:SubSurface,
  {9dcd1fc9-7bc5-4b12-80b4-303930da69d6}, !- Handle
  Sub Surface 2,                          !- Name
  FixedWindow,                            !- Sub Surface Type
  ,                                       !- Construction Name
  {44681a6b-ebc9-469b-bfc2-9175573a9b1e}, !- Surface Name
  ,                                       !- Outside Boundary Condition Object
  ,                                       !- View Factor to Ground
  ,                                       !- Shading Control Name
  ,                                       !- Frame and Divider Name
  ,                                       !- Multiplier
  ,                                       !- Number of Vertices
  1.77635683940025e-015, 11.104322368505, 1.22129639161892, !- X,Y,Z Vertex 1 {m}
  1.77635683940025e-015, 11.104322368505, 0.762, !- X,Y,Z Vertex 2 {m}
  1.77635683940025e-015, 0.0253999999999976, 0.762, !- X,Y,Z Vertex 3 {m}
  1.77635683940025e-015, 0.0253999999999976, 1.22129639161892; !- X,Y,Z Vertex 4 {m}

OS:SubSurface,
  {057916ef-a35a-4f20-b943-9ccffea88d3b}, !- Handle
  Sub Surface 3,                          !- Name
  FixedWindow,                            !- Sub Surface Type
  ,                                       !- Construction Name
  {3e72ffb2-8134-4178-9ba6-cf2d3ec80cdd}, !- Surface Name
  ,                                       !- Outside Boundary Condition Object
  ,                                       !- View Factor to Ground
  ,                                       !- Shading Control Name
  ,                                       !- Frame and Divider Name
  ,                                       !- Multiplier
  ,                                       !- Number of Vertices
  16.6945835527575, 0.0253999999999973, 1.22129639161892, !- X,Y,Z Vertex 1 {m}
  16.6945835527575, 0.0253999999999973, 0.762, !- X,Y,Z Vertex 2 {m}
  16.6945835527575, 11.104322368505, 0.762, !- X,Y,Z Vertex 3 {m}
  16.6945835527575, 11.104322368505, 1.22129639161892; !- X,Y,Z Vertex 4 {m}

OS:SubSurface,
  {8c2331f3-4427-49a7-811a-bb35dd264f87}, !- Handle
  Sub Surface 4,                          !- Name
  FixedWindow,                            !- Sub Surface Type
  ,                                       !- Construction Name
  {76ba9eab-1c70-4285-aebc-3f1030ee3fec}, !- Surface Name
  ,                                       !- Outside Boundary Condition Object
  ,                                       !- View Factor to Ground
  ,                                       !- Shading Control Name
  ,                                       !- Frame and Divider Name
  ,                                       !- Multiplier
  ,                                       !- Number of Vertices
  0.0254000000000018, -2.66453525910038e-015, 1.22059546155034, !- X,Y,Z Vertex 1 {m}
  0.0254000000000018, -2.66453525910038e-015, 0.762, !- X,Y,Z Vertex 2 {m}
  16.6691835527575, -2.66453525910038e-015, 0.762, !- X,Y,Z Vertex 3 {m}
  16.6691835527575, -2.66453525910038e-015, 1.22059546155034; !- X,Y,Z Vertex 4 {m}

OS:RunPeriodControl:DaylightSavingTime,
  {9c0f93c5-1e55-4440-8d12-91e2e11ea97a}, !- Handle
  2nd Sunday in March,                    !- Start Date
  1st Sunday in November;                 !- End Date

OS:People:Definition,
  {e6e1a20e-33f2-4b8c-b630-4b9a881d8acf}, !- Handle
  Office WholeBuilding - Sm Office People Definition, !- Name
  People/Area,                            !- Number of People Calculation Method
  ,                                       !- Number of People {people}
  0.0602778983335744,                     !- People per Space Floor Area {person/m2}
  ,                                       !- Space Floor Area per Person {m2/person}
  0.3,                                    !- Fraction Radiant